
########## Name:		ligand
########## HA_RMSDs:		0.5103
########## HA_RMSDh:		0.5103
########## HA_RMSDm:		0.3798
########## Cluster Size:	92
##########    Grid Score:          -41.045151
##########      Grid_vdw:          -30.754711
##########       Grid_es:          -10.290438
##########    Int_energy:            2.542491

@<TRIPOS>MOLECULE
ligand
 27 28 1 0 0
SMALL
No Charge or Current Charge


@<TRIPOS>ATOM
      1 H1         17.7010   16.1525   13.4742 H       1  lig         0.1727
      2 H2         18.0204   17.3166   15.6051 H       1  lig         0.1166
      3 H3         15.9070   14.4853   13.2729 H       1  lig         0.0550
      4 H4         14.8613   14.9714   17.2549 H       1  lig         0.0368
      5 H5         15.6041   18.9288   20.1202 H       1  lig         0.0978
      6 H6         15.9772   20.0360   18.7812 H       1  lig         0.0926
      7 H7         14.5392   17.5948   18.4967 H       1  lig         0.1004
      8 H8         15.2816   18.5346   17.1828 H       1  lig         0.0953
      9 H9         18.2677   19.4444   19.1844 H       1  lig         0.1060
     10 H10        17.7486   18.0359   20.1591 H       1  lig         0.1059
     11 H11        16.5046   16.2151   18.7650 H       1  lig         0.1048
     12 H12        19.8912   17.5139   18.3733 H       1  lig         0.1022
     13 H13        18.8963   16.2184   19.1161 H       1  lig         0.1051
     14 H14        19.1314   16.2423   17.3520 H       1  lig         0.1095
     15 H15        17.8866   18.3060   17.2675 H       1  lig         0.4480
     16 C1         17.0660   15.9269   14.3190 C.ar    1  lig        -0.2219
     17 C2         17.2326   16.5698   15.5323 C.ar    1  lig        -0.0966
     18 C3         16.0471   14.9959   14.2103 C.ar    1  lig         0.4389
     19 C4         15.4357   15.3070   16.4070 C.ar    1  lig         0.4345
     20 C5         16.4127   16.2572   16.6111 C.ar    1  lig        -0.2788
     21 C6         16.0858   19.0105   19.1419 C.3     1  lig        -0.1057
     22 C7         15.4750   18.0274   18.1336 C.3     1  lig        -0.0990
     23 C8         17.5764   18.5979   19.2370 C.3     1  lig         0.1129
     24 C9         16.5540   16.9424   17.9473 C.3     1  lig         0.2025
     25 C10        19.0231   16.8600   18.2475 C.3     1  lig         0.0877
     26 N1         15.2463   14.6953   15.2377 N.ar    1  lig        -0.6315
     27 N2         17.7874   17.6906   18.1203 N.4     1  lig        -0.6917
@<TRIPOS>BOND
     1    19    26   ar
     2    18    26   ar
     3    19    20   ar
     4     4    19    1
     5    17    20   ar
     6    20    24    1
     7    16    17   ar
     8     2    17    1
     9    16    18   ar
    10     1    16    1
    11     3    18    1
    12    24    27    1
    13    23    27    1
    14    25    27    1
    15    15    27    1
    16    22    24    1
    17    11    24    1
    18    21    22    1
    19     7    22    1
    20     8    22    1
    21    21    23    1
    22     9    23    1
    23    10    23    1
    24    12    25    1
    25    13    25    1
    26    14    25    1
    27     5    21    1
    28     6    21    1
@<TRIPOS>SUBSTRUCTURE
     1 lig         1 TEMP              0 ****  ****    0 ROOT


########## Name:		ligand
########## HA_RMSDs:		4.4808
########## HA_RMSDh:		3.9413
########## HA_RMSDm:		2.7230
########## Cluster Size:	192
##########    Grid Score:          -37.700935
##########      Grid_vdw:          -31.440075
##########       Grid_es:           -6.260861
##########    Int_energy:            1.526742

@<TRIPOS>MOLECULE
ligand
 27 28 1 0 0
SMALL
No Charge or Current Charge


@<TRIPOS>ATOM
      1 H1         21.9762   18.5947   18.2850 H       1  lig         0.1727
      2 H2         19.8804   17.7003   19.1826 H       1  lig         0.1166
      3 H3         22.0540   19.3601   15.9511 H       1  lig         0.0550
      4 H4         18.1145   18.2259   15.3347 H       1  lig         0.0368
      5 H5         15.2876   15.2135   17.9660 H       1  lig         0.0978
      6 H6         15.2039   15.6623   16.2485 H       1  lig         0.0926
      7 H7         17.6258   15.2206   17.6796 H       1  lig         0.1004
      8 H8         17.4690   16.0407   16.1100 H       1  lig         0.0953
      9 H9         14.3082   17.7452   17.0346 H       1  lig         0.1060
     10 H10        14.8757   17.3814   18.6927 H       1  lig         0.1059
     11 H11        17.4749   17.2995   18.9019 H       1  lig         0.1048
     12 H12        15.3259   20.0526   17.8476 H       1  lig         0.1022
     13 H13        16.1755   19.3093   19.2424 H       1  lig         0.1051
     14 H14        17.1205   20.1086   17.9634 H       1  lig         0.1095
     15 H15        16.3859   18.4011   16.4271 H       1  lig         0.4480
     16 C1         21.0988   18.5282   17.6574 C.ar    1  lig        -0.2219
     17 C2         19.9070   18.0222   18.1437 C.ar    1  lig        -0.0966
     18 C3         21.1324   18.9664   16.3446 C.ar    1  lig         0.4389
     19 C4         18.9297   18.3838   16.0218 C.ar    1  lig         0.4345
     20 C5         18.7922   17.9341   17.3171 C.ar    1  lig        -0.2788
     21 C6         15.6075   15.9488   17.2225 C.3     1  lig        -0.1057
     22 C7         17.1379   16.0453   17.1535 C.3     1  lig        -0.0990
     23 C8         15.1439   17.3693   17.6327 C.3     1  lig         0.1129
     24 C9         17.4712   17.3991   17.8109 C.3     1  lig         0.2025
     25 C10        16.2237   19.5211   18.1770 C.3     1  lig         0.0877
     26 N1         20.0641   18.8961   15.5442 N.ar    1  lig        -0.6315
     27 N2         16.3175   18.2113   17.4639 N.4     1  lig        -0.6917
@<TRIPOS>BOND
     1    19    26   ar
     2    18    26   ar
     3    19    20   ar
     4     4    19    1
     5    17    20   ar
     6    20    24    1
     7    16    17   ar
     8     2    17    1
     9    16    18   ar
    10     1    16    1
    11     3    18    1
    12    24    27    1
    13    23    27    1
    14    25    27    1
    15    15    27    1
    16    22    24    1
    17    11    24    1
    18    21    22    1
    19     7    22    1
    20     8    22    1
    21    21    23    1
    22     9    23    1
    23    10    23    1
    24    12    25    1
    25    13    25    1
    26    14    25    1
    27     5    21    1
    28     6    21    1
@<TRIPOS>SUBSTRUCTURE
     1 lig         1 TEMP              0 ****  ****    0 ROOT


########## Name:		ligand
########## HA_RMSDs:		4.7086
########## HA_RMSDh:		4.1764
########## HA_RMSDm:		2.5184
########## Cluster Size:	24
##########    Grid Score:          -33.983051
##########      Grid_vdw:          -30.014269
##########       Grid_es:           -3.968783
##########    Int_energy:            1.435807

@<TRIPOS>MOLECULE
ligand
 27 28 1 0 0
SMALL
No Charge or Current Charge


@<TRIPOS>ATOM
      1 H1         21.0014   19.4979   15.8338 H       1  lig         0.1727
      2 H2         18.9257   18.4926   15.0098 H       1  lig         0.1166
      3 H3         21.7305   19.0339   18.1342 H       1  lig         0.0550
      4 H4         18.3402   16.7630   18.8655 H       1  lig         0.0368
      5 H5         15.6117   14.7526   14.7851 H       1  lig         0.0978
      6 H6         16.3173   15.7498   13.4944 H       1  lig         0.0926
      7 H7         17.7469   14.8265   15.7776 H       1  lig         0.1004
      8 H8         18.2559   16.1252   14.6752 H       1  lig         0.0953
      9 H9         14.8216   17.4618   14.2629 H       1  lig         0.1060
     10 H10        14.5440   16.5587   15.7831 H       1  lig         0.1059
     11 H11        16.6710   16.3801   17.2833 H       1  lig         0.1048
     12 H12        14.9077   19.3531   16.1165 H       1  lig         0.1022
     13 H13        15.0636   18.1767   17.4625 H       1  lig         0.1051
     14 H14        16.3719   19.3454   17.1621 H       1  lig         0.1095
     15 H15        16.7870   18.2575   15.0503 H       1  lig         0.4480
     16 C1         20.4081   18.8659   16.4792 C.ar    1  lig        -0.2219
     17 C2         19.2308   18.2921   16.0346 C.ar    1  lig        -0.0966
     18 C3         20.8174   18.5921   17.7731 C.ar    1  lig         0.4389
     19 C4         18.9601   17.2891   18.1581 C.ar    1  lig         0.4345
     20 C5         18.4754   17.4910   16.8840 C.ar    1  lig        -0.2788
     21 C6         16.1321   15.6900   14.5695 C.3     1  lig        -0.1057
     22 C7         17.4558   15.7853   15.3407 C.3     1  lig        -0.0990
     23 C8         15.3000   16.8977   15.0694 C.3     1  lig         0.1129
     24 C9         17.1919   16.8380   16.4354 C.3     1  lig         0.2025
     25 C10        15.5977   18.7313   16.6947 C.3     1  lig         0.0877
     26 N1         20.1047   17.8151   18.5948 N.ar    1  lig        -0.6315
     27 N2         16.2463   17.7334   15.7911 N.4     1  lig        -0.6917
@<TRIPOS>BOND
     1    19    26   ar
     2    18    26   ar
     3    19    20   ar
     4     4    19    1
     5    17    20   ar
     6    20    24    1
     7    16    17   ar
     8     2    17    1
     9    16    18   ar
    10     1    16    1
    11     3    18    1
    12    24    27    1
    13    23    27    1
    14    25    27    1
    15    15    27    1
    16    22    24    1
    17    11    24    1
    18    21    22    1
    19     7    22    1
    20     8    22    1
    21    21    23    1
    22     9    23    1
    23    10    23    1
    24    12    25    1
    25    13    25    1
    26    14    25    1
    27     5    21    1
    28     6    21    1
@<TRIPOS>SUBSTRUCTURE
     1 lig         1 TEMP              0 ****  ****    0 ROOT


########## Name:		ligand
########## HA_RMSDs:		4.5154
########## HA_RMSDh:		4.2954
########## HA_RMSDm:		2.7162
########## Cluster Size:	20
##########    Grid Score:          -32.312889
##########      Grid_vdw:          -28.216497
##########       Grid_es:           -4.096392
##########    Int_energy:            1.754508

@<TRIPOS>MOLECULE
ligand
 27 28 1 0 0
SMALL
No Charge or Current Charge


@<TRIPOS>ATOM
      1 H1         21.8989   19.5415   15.7527 H       1  lig         0.1727
      2 H2         19.7792   18.7109   14.8501 H       1  lig         0.1166
      3 H3         22.3648   19.2878   18.1521 H       1  lig         0.0550
      4 H4         18.6443   17.5792   18.8038 H       1  lig         0.0368
      5 H5         14.7231   17.8033   15.5885 H       1  lig         0.0978
      6 H6         14.7001   18.0625   17.3465 H       1  lig         0.0926
      7 H7         16.5996   19.2273   15.5734 H       1  lig         0.1004
      8 H8         16.7449   19.1170   17.3419 H       1  lig         0.0953
      9 H9         15.2431   15.7304   17.5040 H       1  lig         0.1060
     10 H10        15.7016   15.7042   15.7740 H       1  lig         0.1059
     11 H11        17.8008   17.1577   15.2382 H       1  lig         0.1048
     12 H12        17.4770   14.3056   17.4898 H       1  lig         0.1022
     13 H13        17.9190   14.8163   15.8273 H       1  lig         0.1051
     14 H14        18.9866   15.2369   17.1879 H       1  lig         0.1095
     15 H15        17.2350   16.6484   18.0568 H       1  lig         0.4480
     16 C1         21.1728   19.0782   16.4054 C.ar    1  lig        -0.2219
     17 C2         19.9681   18.6065   15.9164 C.ar    1  lig        -0.0966
     18 C3         21.4323   18.9230   17.7564 C.ar    1  lig         0.4389
     19 C4         19.3872   17.9270   18.1048 C.ar    1  lig         0.4345
     20 C5         19.0417   18.0237   16.7743 C.ar    1  lig        -0.2788
     21 C6         15.3097   17.7187   16.5076 C.3     1  lig        -0.1057
     22 C7         16.6042   18.5392   16.4227 C.3     1  lig        -0.0990
     23 C8         15.7848   16.2582   16.7132 C.3     1  lig         0.1129
     24 C9         17.7216   17.4870   16.2800 C.3     1  lig         0.2025
     25 C10        17.9487   15.0828   16.8811 C.3     1  lig         0.0877
     26 N1         20.5536   18.3548   18.5884 N.ar    1  lig        -0.6315
     27 N2         17.1978   16.3649   17.0400 N.4     1  lig        -0.6917
@<TRIPOS>BOND
     1    19    26   ar
     2    18    26   ar
     3    19    20   ar
     4     4    19    1
     5    17    20   ar
     6    20    24    1
     7    16    17   ar
     8     2    17    1
     9    16    18   ar
    10     1    16    1
    11     3    18    1
    12    24    27    1
    13    23    27    1
    14    25    27    1
    15    15    27    1
    16    22    24    1
    17    11    24    1
    18    21    22    1
    19     7    22    1
    20     8    22    1
    21    21    23    1
    22     9    23    1
    23    10    23    1
    24    12    25    1
    25    13    25    1
    26    14    25    1
    27     5    21    1
    28     6    21    1
@<TRIPOS>SUBSTRUCTURE
     1 lig         1 TEMP              0 ****  ****    0 ROOT


########## Name:		ligand
########## HA_RMSDs:		1.9335
########## HA_RMSDh:		1.0441
########## HA_RMSDm:		0.2945
########## Cluster Size:	13
##########    Grid Score:          -29.687639
##########      Grid_vdw:          -20.230122
##########       Grid_es:           -9.457518
##########    Int_energy:            7.188667

@<TRIPOS>MOLECULE
ligand
 27 28 1 0 0
SMALL
No Charge or Current Charge


@<TRIPOS>ATOM
      1 H1         17.5497   15.2651   12.9301 H       1  lig         0.1727
      2 H2         18.6264   16.8530   14.4524 H       1  lig         0.1166
      3 H3         15.2990   14.4319   13.4581 H       1  lig         0.0550
      4 H4         15.2303   16.5561   17.0175 H       1  lig         0.0368
      5 H5         19.8665   18.8209   18.6796 H       1  lig         0.0978
      6 H6         19.3869   17.3135   19.4894 H       1  lig         0.0926
      7 H7         19.7450   17.5854   16.6776 H       1  lig         0.1004
      8 H8         18.9011   16.2568   17.5043 H       1  lig         0.0953
      9 H9         17.3643   18.4801   20.0432 H       1  lig         0.1060
     10 H10        17.7353   19.7351   18.8221 H       1  lig         0.1059
     11 H11        17.7008   18.8372   16.3728 H       1  lig         0.1048
     12 H12        15.0294   18.8814   18.8568 H       1  lig         0.1022
     13 H13        15.7609   19.7651   17.4770 H       1  lig         0.1051
     14 H14        14.8926   18.2398   17.1814 H       1  lig         0.1095
     15 H15        16.6004   17.0865   18.4339 H       1  lig         0.4480
     16 C1         17.0437   15.5869   13.8292 C.ar    1  lig        -0.2219
     17 C2         17.6361   16.4795   14.7041 C.ar    1  lig        -0.0966
     18 C3         15.7718   15.1294   14.1283 C.ar    1  lig         0.4389
     19 C4         15.7162   16.3513   16.0775 C.ar    1  lig         0.4345
     20 C5         16.9735   16.8727   15.8618 C.ar    1  lig        -0.2788
     21 C6         19.1020   18.0402   18.7251 C.3     1  lig        -0.1057
     22 C7         18.9332   17.3426   17.3682 C.3     1  lig        -0.0990
     23 C8         17.7133   18.6601   19.0218 C.3     1  lig         0.1129
     24 C9         17.5792   17.8520   16.8360 C.3     1  lig         0.2025
     25 C10        15.5253   18.7856   17.8863 C.3     1  lig         0.0877
     26 N1         15.1214   15.5087   15.2328 N.ar    1  lig        -0.6315
     27 N2         16.8144   18.0492   18.0556 N.4     1  lig        -0.6917
@<TRIPOS>BOND
     1    19    26   ar
     2    18    26   ar
     3    19    20   ar
     4     4    19    1
     5    17    20   ar
     6    20    24    1
     7    16    17   ar
     8     2    17    1
     9    16    18   ar
    10     1    16    1
    11     3    18    1
    12    24    27    1
    13    23    27    1
    14    25    27    1
    15    15    27    1
    16    22    24    1
    17    11    24    1
    18    21    22    1
    19     7    22    1
    20     8    22    1
    21    21    23    1
    22     9    23    1
    23    10    23    1
    24    12    25    1
    25    13    25    1
    26    14    25    1
    27     5    21    1
    28     6    21    1
@<TRIPOS>SUBSTRUCTURE
     1 lig         1 TEMP              0 ****  ****    0 ROOT


########## Name:		ligand
########## HA_RMSDs:		4.3412
########## HA_RMSDh:		4.0499
########## HA_RMSDm:		2.2745
########## Cluster Size:	3
##########    Grid Score:          -25.468567
##########      Grid_vdw:          -22.693930
##########       Grid_es:           -2.774637
##########    Int_energy:            6.258200

@<TRIPOS>MOLECULE
ligand
 27 28 1 0 0
SMALL
No Charge or Current Charge


@<TRIPOS>ATOM
      1 H1         21.3398   17.7049   18.3004 H       1  lig         0.1727
      2 H2         19.1828   16.5484   18.3891 H       1  lig         0.1166
      3 H3         21.6967   19.4541   16.6118 H       1  lig         0.0550
      4 H4         17.9272   18.8236   15.0057 H       1  lig         0.0368
      5 H5         14.4968   15.8525   18.1582 H       1  lig         0.0978
      6 H6         15.7626   14.7653   18.7698 H       1  lig         0.0926
      7 H7         16.0281   17.5937   18.5736 H       1  lig         0.1004
      8 H8         17.3527   16.4279   18.7910 H       1  lig         0.0953
      9 H9         15.8399   13.9082   16.5297 H       1  lig         0.1060
     10 H10        14.9347   15.3337   15.9363 H       1  lig         0.1059
     11 H11        16.2584   17.5698   16.1684 H       1  lig         0.1048
     12 H12        17.1203   14.5559   14.3022 H       1  lig         0.1022
     13 H13        16.3449   16.1708   14.1989 H       1  lig         0.1051
     14 H14        18.1110   16.0554   14.3875 H       1  lig         0.1095
     15 H15        17.7617   15.1000   16.5741 H       1  lig         0.4480
     16 C1         20.5580   17.9547   17.5973 C.ar    1  lig        -0.2219
     17 C2         19.3345   17.3106   17.6277 C.ar    1  lig        -0.0966
     18 C3         20.7483   18.9458   16.6495 C.ar    1  lig         0.4389
     19 C4         18.6355   18.6290   15.7943 C.ar    1  lig         0.4345
     20 C5         18.3452   17.6383   16.7070 C.ar    1  lig        -0.2788
     21 C6         15.5325   15.5288   18.0229 C.3     1  lig        -0.1057
     22 C7         16.5083   16.7067   18.1523 C.3     1  lig        -0.0990
     23 C8         15.7493   14.9973   16.5836 C.3     1  lig         0.1129
     24 C9         16.9941   16.9678   16.7129 C.3     1  lig         0.2025
     25 C10        17.1531   15.5949   14.6434 C.3     1  lig         0.0877
     26 N1         19.8007   19.2762   15.7665 N.ar    1  lig        -0.6315
     27 N2         16.9714   15.6389   16.1259 N.4     1  lig        -0.6917
@<TRIPOS>BOND
     1    19    26   ar
     2    18    26   ar
     3    19    20   ar
     4     4    19    1
     5    17    20   ar
     6    20    24    1
     7    16    17   ar
     8     2    17    1
     9    16    18   ar
    10     1    16    1
    11     3    18    1
    12    24    27    1
    13    23    27    1
    14    25    27    1
    15    15    27    1
    16    22    24    1
    17    11    24    1
    18    21    22    1
    19     7    22    1
    20     8    22    1
    21    21    23    1
    22     9    23    1
    23    10    23    1
    24    12    25    1
    25    13    25    1
    26    14    25    1
    27     5    21    1
    28     6    21    1
@<TRIPOS>SUBSTRUCTURE
     1 lig         1 TEMP              0 ****  ****    0 ROOT


########## Name:		ligand
########## HA_RMSDs:		2.3560
########## HA_RMSDh:		2.2698
########## HA_RMSDm:		0.4823
########## Cluster Size:	10
##########    Grid Score:          -24.338039
##########      Grid_vdw:          -20.900593
##########       Grid_es:           -3.437447
##########    Int_energy:           14.517657

@<TRIPOS>MOLECULE
ligand
 27 28 1 0 0
SMALL
No Charge or Current Charge


@<TRIPOS>ATOM
      1 H1         16.6142   15.0290   13.4427 H       1  lig         0.1727
      2 H2         18.1667   16.7784   14.1692 H       1  lig         0.1166
      3 H3         14.9943   14.1172   15.0499 H       1  lig         0.0550
      4 H4         16.5156   16.4871   18.0922 H       1  lig         0.0368
      5 H5         20.5118   20.0664   16.3028 H       1  lig         0.0978
      6 H6         21.4105   18.6002   15.8547 H       1  lig         0.0926
      7 H7         18.7569   19.1841   15.0024 H       1  lig         0.1004
      8 H8         19.5574   17.5983   14.9298 H       1  lig         0.0953
      9 H9         21.2791   18.0397   18.1843 H       1  lig         0.1060
     10 H10        19.9999   19.2685   18.4239 H       1  lig         0.1059
     11 H11        17.7839   18.7139   17.1635 H       1  lig         0.1048
     12 H12        19.5250   16.7956   19.7321 H       1  lig         0.1022
     13 H13        18.2373   18.0084   19.4307 H       1  lig         0.1051
     14 H14        17.9867   16.3190   18.9299 H       1  lig         0.1095
     15 H15        19.7731   16.5834   17.3317 H       1  lig         0.4480
     16 C1         16.5931   15.3877   14.4620 C.ar    1  lig        -0.2219
     17 C2         17.4641   16.3717   14.8934 C.ar    1  lig        -0.0966
     18 C3         15.6769   14.8857   15.3704 C.ar    1  lig         0.4389
     19 C4         16.4896   16.2409   17.0432 C.ar    1  lig         0.4345
     20 C5         17.4290   16.8118   16.2121 C.ar    1  lig        -0.2788
     21 C6         20.4963   18.9732   16.3224 C.3     1  lig        -0.1057
     22 C7         19.2646   18.4178   15.5940 C.3     1  lig        -0.0990
     23 C8         20.3544   18.4605   17.7778 C.3     1  lig         0.1129
     24 C9         18.3534   17.8900   16.7197 C.3     1  lig         0.2025
     25 C10        18.7271   17.1135   19.0544 C.3     1  lig         0.0877
     26 N1         15.6272   15.3088   16.6375 N.ar    1  lig        -0.6315
     27 N2         19.3105   17.4498   17.7204 N.4     1  lig        -0.6917
@<TRIPOS>BOND
     1    19    26   ar
     2    18    26   ar
     3    19    20   ar
     4     4    19    1
     5    17    20   ar
     6    20    24    1
     7    16    17   ar
     8     2    17    1
     9    16    18   ar
    10     1    16    1
    11     3    18    1
    12    24    27    1
    13    23    27    1
    14    25    27    1
    15    15    27    1
    16    22    24    1
    17    11    24    1
    18    21    22    1
    19     7    22    1
    20     8    22    1
    21    21    23    1
    22     9    23    1
    23    10    23    1
    24    12    25    1
    25    13    25    1
    26    14    25    1
    27     5    21    1
    28     6    21    1
@<TRIPOS>SUBSTRUCTURE
     1 lig         1 TEMP              0 ****  ****    0 ROOT


########## Name:		ligand
########## HA_RMSDs:		4.4963
########## HA_RMSDh:		4.0972
########## HA_RMSDm:		2.3469
########## Cluster Size:	6
##########    Grid Score:          -23.546940
##########      Grid_vdw:          -18.636969
##########       Grid_es:           -4.909972
##########    Int_energy:            1.593952

@<TRIPOS>MOLECULE
ligand
 27 28 1 0 0
SMALL
No Charge or Current Charge


@<TRIPOS>ATOM
      1 H1         15.3605   19.7811   19.6777 H       1  lig         0.1727
      2 H2         15.2189   19.1904   17.3051 H       1  lig         0.1166
      3 H3         16.9481   18.5836   21.1214 H       1  lig         0.0550
      4 H4         18.1223   16.1394   17.9856 H       1  lig         0.0368
      5 H5         15.6440   15.4602   13.6593 H       1  lig         0.0978
      6 H6         16.4894   14.2518   14.6508 H       1  lig         0.0926
      7 H7         14.7410   16.2456   15.6884 H       1  lig         0.1004
      8 H8         15.9060   15.2817   16.6236 H       1  lig         0.0953
      9 H9         18.4957   15.3795   13.9714 H       1  lig         0.1060
     10 H10        17.5366   16.7861   13.4187 H       1  lig         0.1059
     11 H11        16.3259   18.0397   15.3601 H       1  lig         0.1048
     12 H12        19.8908   17.4509   14.8565 H       1  lig         0.1022
     13 H13        18.5456   18.6080   14.5895 H       1  lig         0.1051
     14 H14        19.1604   18.3419   16.2385 H       1  lig         0.1095
     15 H15        18.3476   16.0746   16.1186 H       1  lig         0.4480
     16 C1         15.9824   18.9951   19.2736 C.ar    1  lig        -0.2219
     17 C2         15.9147   18.6433   17.9377 C.ar    1  lig        -0.0966
     18 C3         16.8861   18.3227   20.0787 C.ar    1  lig         0.4389
     19 C4         17.5730   17.0031   18.3230 C.ar    1  lig         0.4345
     20 C5         16.7151   17.6212   17.4392 C.ar    1  lig        -0.2788
     21 C6         16.3342   15.3221   14.4961 C.3     1  lig        -0.1057
     22 C7         15.7948   15.9695   15.7791 C.3     1  lig        -0.0990
     23 C8         17.6715   16.0548   14.2205 C.3     1  lig         0.1129
     24 C9         16.6799   17.2142   15.9872 C.3     1  lig         0.2025
     25 C10        18.9698   17.8731   15.2694 C.3     1  lig         0.0877
     26 N1         17.6678   17.3458   19.6078 N.ar    1  lig        -0.6315
     27 N2         17.9579   16.7875   15.4435 N.4     1  lig        -0.6917
@<TRIPOS>BOND
     1    19    26   ar
     2    18    26   ar
     3    19    20   ar
     4     4    19    1
     5    17    20   ar
     6    20    24    1
     7    16    17   ar
     8     2    17    1
     9    16    18   ar
    10     1    16    1
    11     3    18    1
    12    24    27    1
    13    23    27    1
    14    25    27    1
    15    15    27    1
    16    22    24    1
    17    11    24    1
    18    21    22    1
    19     7    22    1
    20     8    22    1
    21    21    23    1
    22     9    23    1
    23    10    23    1
    24    12    25    1
    25    13    25    1
    26    14    25    1
    27     5    21    1
    28     6    21    1
@<TRIPOS>SUBSTRUCTURE
     1 lig         1 TEMP              0 ****  ****    0 ROOT


########## Name:		ligand
########## HA_RMSDs:		3.8791
########## HA_RMSDh:		3.5604
########## HA_RMSDm:		1.8561
########## Cluster Size:	10
##########    Grid Score:          -21.682972
##########      Grid_vdw:          -15.835884
##########       Grid_es:           -5.847089
##########    Int_energy:            4.235757

@<TRIPOS>MOLECULE
ligand
 27 28 1 0 0
SMALL
No Charge or Current Charge


@<TRIPOS>ATOM
      1 H1         15.2720   19.4415   19.2226 H       1  lig         0.1727
      2 H2         17.6907   19.5206   18.8455 H       1  lig         0.1166
      3 H3         13.9500   17.6564   18.1718 H       1  lig         0.0550
      4 H4         17.3066   16.1448   16.2654 H       1  lig         0.0368
      5 H5         22.1421   17.8796   18.1992 H       1  lig         0.0978
      6 H6         21.5777   19.4993   18.6643 H       1  lig         0.0926
      7 H7         20.1259   17.0944   19.1307 H       1  lig         0.1004
      8 H8         19.4712   18.7458   19.2011 H       1  lig         0.0953
      9 H9         21.4643   19.9270   16.3058 H       1  lig         0.1060
     10 H10        21.5697   18.1727   15.9667 H       1  lig         0.1059
     11 H11        19.4991   16.8296   16.8122 H       1  lig         0.1048
     12 H12        19.6537   19.5666   14.4052 H       1  lig         0.1022
     13 H13        19.6522   17.7824   14.5959 H       1  lig         0.1051
     14 H14        18.1608   18.7004   14.9133 H       1  lig         0.1095
     15 H15        19.2628   19.7395   16.7898 H       1  lig         0.4480
     16 C1         15.7499   18.7050   18.5923 C.ar    1  lig        -0.2219
     17 C2         17.1135   18.7346   18.3631 C.ar    1  lig        -0.0966
     18 C3         15.0131   17.6908   18.0048 C.ar    1  lig         0.4389
     19 C4         16.8877   16.8234   16.9903 C.ar    1  lig         0.4345
     20 C5         17.7080   17.7848   17.5396 C.ar    1  lig        -0.2788
     21 C6         21.3301   18.6038   18.0895 C.3     1  lig        -0.1057
     22 C7         19.9926   18.0214   18.5671 C.3     1  lig        -0.0990
     23 C8         21.1003   18.9360   16.5935 C.3     1  lig         0.1129
     24 C9         19.1925   17.7751   17.2727 C.3     1  lig         0.2025
     25 C10        19.2522   18.7210   14.9717 C.3     1  lig         0.0877
     26 N1         15.5757   16.7664   17.2199 N.ar    1  lig        -0.6315
     27 N2         19.6617   18.8408   16.4038 N.4     1  lig        -0.6917
@<TRIPOS>BOND
     1    19    26   ar
     2    18    26   ar
     3    19    20   ar
     4     4    19    1
     5    17    20   ar
     6    20    24    1
     7    16    17   ar
     8     2    17    1
     9    16    18   ar
    10     1    16    1
    11     3    18    1
    12    24    27    1
    13    23    27    1
    14    25    27    1
    15    15    27    1
    16    22    24    1
    17    11    24    1
    18    21    22    1
    19     7    22    1
    20     8    22    1
    21    21    23    1
    22     9    23    1
    23    10    23    1
    24    12    25    1
    25    13    25    1
    26    14    25    1
    27     5    21    1
    28     6    21    1
@<TRIPOS>SUBSTRUCTURE
     1 lig         1 TEMP              0 ****  ****    0 ROOT


########## Name:		ligand
########## HA_RMSDs:		4.7013
########## HA_RMSDh:		4.1419
########## HA_RMSDm:		2.1835
########## Cluster Size:	5
##########    Grid Score:          -19.082479
##########      Grid_vdw:          -16.281719
##########       Grid_es:           -2.800761
##########    Int_energy:            9.335354

@<TRIPOS>MOLECULE
ligand
 27 28 1 0 0
SMALL
No Charge or Current Charge


@<TRIPOS>ATOM
      1 H1         19.4605   18.5374   19.0265 H       1  lig         0.1727
      2 H2         18.6523   17.1581   17.1711 H       1  lig         0.1166
      3 H3         17.8399   19.4964   20.6054 H       1  lig         0.0550
      4 H4         14.6593   17.9101   18.4716 H       1  lig         0.0368
      5 H5         16.0925   14.1054   14.6787 H       1  lig         0.0978
      6 H6         17.5257   15.0129   14.1490 H       1  lig         0.0926
      7 H7         16.8360   14.5408   16.8712 H       1  lig         0.1004
      8 H8         18.0004   15.7460   16.2775 H       1  lig         0.0953
      9 H9         15.9579   16.6241   13.3096 H       1  lig         0.1060
     10 H10        14.6523   15.8858   14.2863 H       1  lig         0.1059
     11 H11        15.0182   16.1327   16.8577 H       1  lig         0.1048
     12 H12        14.6876   18.7231   14.3102 H       1  lig         0.1022
     13 H13        13.8034   17.7434   15.5261 H       1  lig         0.1051
     14 H14        14.9313   19.0082   16.0700 H       1  lig         0.1095
     15 H15        16.7414   17.7273   15.1221 H       1  lig         0.4480
     16 C1         18.4018   18.3619   18.8986 C.ar    1  lig        -0.2219
     17 C2         17.9246   17.5897   17.8551 C.ar    1  lig        -0.0966
     18 C3         17.4836   18.8908   19.7897 C.ar    1  lig         0.4389
     19 C4         15.7236   17.9646   18.6320 C.ar    1  lig         0.4345
     20 C5         16.5578   17.3849   17.7008 C.ar    1  lig        -0.2788
     21 C6         16.6159   15.0628   14.7518 C.3     1  lig        -0.1057
     22 C7         16.9639   15.4005   16.2082 C.3     1  lig        -0.0990
     23 C8         15.6936   16.2197   14.2915 C.3     1  lig         0.1129
     24 C9         15.9971   16.5409   16.5836 C.3     1  lig         0.2025
     25 C10        14.7340   18.2582   15.2995 C.3     1  lig         0.0877
     26 N1         16.1684   18.6917   19.6571 N.ar    1  lig        -0.6315
     27 N2         15.8262   17.2386   15.3206 N.4     1  lig        -0.6917
@<TRIPOS>BOND
     1    19    26   ar
     2    18    26   ar
     3    19    20   ar
     4     4    19    1
     5    17    20   ar
     6    20    24    1
     7    16    17   ar
     8     2    17    1
     9    16    18   ar
    10     1    16    1
    11     3    18    1
    12    24    27    1
    13    23    27    1
    14    25    27    1
    15    15    27    1
    16    22    24    1
    17    11    24    1
    18    21    22    1
    19     7    22    1
    20     8    22    1
    21    21    23    1
    22     9    23    1
    23    10    23    1
    24    12    25    1
    25    13    25    1
    26    14    25    1
    27     5    21    1
    28     6    21    1
@<TRIPOS>SUBSTRUCTURE
     1 lig         1 TEMP              0 ****  ****    0 ROOT


########## Name:		ligand
########## HA_RMSDs:		4.6656
########## HA_RMSDh:		4.3012
########## HA_RMSDm:		2.1187
########## Cluster Size:	5
##########    Grid Score:          -17.434845
##########      Grid_vdw:          -16.290697
##########       Grid_es:           -1.144148
##########    Int_energy:            1.370756

@<TRIPOS>MOLECULE
ligand
 27 28 1 0 0
SMALL
No Charge or Current Charge


@<TRIPOS>ATOM
      1 H1         15.8199   19.7829   19.0183 H       1  lig         0.1727
      2 H2         15.3933   18.2371   17.1671 H       1  lig         0.1166
      3 H3         17.9058   19.5753   20.3006 H       1  lig         0.0550
      4 H4         19.0633   16.2663   18.0877 H       1  lig         0.0368
      5 H5         16.9823   15.4155   13.3145 H       1  lig         0.0978
      6 H6         15.6436   16.5804   13.4089 H       1  lig         0.0926
      7 H7         18.1881   16.9514   14.6322 H       1  lig         0.1004
      8 H8         16.7035   17.8567   15.0029 H       1  lig         0.0953
      9 H9         14.5109   14.8843   14.6734 H       1  lig         0.1060
     10 H10        16.0555   14.0140   14.9191 H       1  lig         0.1059
     11 H11        17.7669   15.3357   16.3788 H       1  lig         0.1048
     12 H12        14.4117   14.1807   17.2260 H       1  lig         0.1022
     13 H13        16.1594   13.7797   17.2945 H       1  lig         0.1051
     14 H14        15.5171   15.0842   18.3210 H       1  lig         0.1095
     15 H15        15.0271   16.3429   16.3233 H       1  lig         0.4480
     16 C1         16.5371   19.0117   18.7758 C.ar    1  lig        -0.2219
     17 C2         16.3133   18.1262   17.7372 C.ar    1  lig        -0.0966
     18 C3         17.7189   18.8948   19.4874 C.ar    1  lig         0.4389
     19 C4         18.3822   17.0905   18.2223 C.ar    1  lig         0.4345
     20 C5         17.2431   17.1334   17.4480 C.ar    1  lig        -0.2788
     21 C6         16.3320   15.9694   13.9973 C.3     1  lig        -0.1057
     22 C7         17.1462   16.8568   14.9490 C.3     1  lig        -0.0990
     23 C8         15.5694   14.9935   14.9285 C.3     1  lig         0.1129
     24 C9         17.0425   16.1552   16.3176 C.3     1  lig         0.2025
     25 C10        15.4229   14.5773   17.3570 C.3     1  lig         0.0877
     26 N1         18.6245   17.9510   19.2114 N.ar    1  lig        -0.6315
     27 N2         15.7226   15.5502   16.2632 N.4     1  lig        -0.6917
@<TRIPOS>BOND
     1    19    26   ar
     2    18    26   ar
     3    19    20   ar
     4     4    19    1
     5    17    20   ar
     6    20    24    1
     7    16    17   ar
     8     2    17    1
     9    16    18   ar
    10     1    16    1
    11     3    18    1
    12    24    27    1
    13    23    27    1
    14    25    27    1
    15    15    27    1
    16    22    24    1
    17    11    24    1
    18    21    22    1
    19     7    22    1
    20     8    22    1
    21    21    23    1
    22     9    23    1
    23    10    23    1
    24    12    25    1
    25    13    25    1
    26    14    25    1
    27     5    21    1
    28     6    21    1
@<TRIPOS>SUBSTRUCTURE
     1 lig         1 TEMP              0 ****  ****    0 ROOT


########## Name:		ligand
########## HA_RMSDs:		1.9644
########## HA_RMSDh:		1.7859
########## HA_RMSDm:		0.9582
########## Cluster Size:	2
##########    Grid Score:          -15.005650
##########      Grid_vdw:          -10.032187
##########       Grid_es:           -4.973463
##########    Int_energy:            2.620132

@<TRIPOS>MOLECULE
ligand
 27 28 1 0 0
SMALL
No Charge or Current Charge


@<TRIPOS>ATOM
      1 H1         14.3981   17.3546   13.3937 H       1  lig         0.1727
      2 H2         15.2911   18.1283   15.5390 H       1  lig         0.1166
      3 H3         15.2936   15.2976   12.3911 H       1  lig         0.0550
      4 H4         18.0278   14.8561   15.4758 H       1  lig         0.0368
      5 H5         19.1253   18.7283   18.7793 H       1  lig         0.0978
      6 H6         20.3313   17.9051   17.7663 H       1  lig         0.0926
      7 H7         17.9001   19.0194   16.7884 H       1  lig         0.1004
      8 H8         18.9418   17.8600   15.9332 H       1  lig         0.0953
      9 H9         19.7395   15.9336   18.9997 H       1  lig         0.1060
     10 H10        18.2577   16.7365   19.6024 H       1  lig         0.1059
     11 H11        16.5283   17.2627   17.7214 H       1  lig         0.1048
     12 H12        17.8926   14.0472   18.7739 H       1  lig         0.1022
     13 H13        16.5347   15.2013   18.9838 H       1  lig         0.1051
     14 H14        16.6896   14.2959   17.4593 H       1  lig         0.1095
     15 H15        18.7389   15.4890   17.0206 H       1  lig         0.4480
     16 C1         15.1847   16.8022   13.8878 C.ar    1  lig        -0.2219
     17 C2         15.7057   17.2245   15.0974 C.ar    1  lig        -0.0966
     18 C3         15.6874   15.6373   13.3338 C.ar    1  lig         0.4389
     19 C4         17.1679   15.3671   15.0748 C.ar    1  lig         0.4345
     20 C5         16.7257   16.5062   15.7119 C.ar    1  lig        -0.2788
     21 C6         19.2837   17.9059   18.0762 C.3     1  lig        -0.1057
     22 C7         18.3692   18.0340   16.8500 C.3     1  lig        -0.0990
     23 C8         18.8831   16.5563   18.7237 C.3     1  lig         0.1129
     24 C9         17.3136   16.9262   17.0358 C.3     1  lig         0.2025
     25 C10        17.2392   14.7702   18.2766 C.3     1  lig         0.0877
     26 N1         16.6604   14.9332   13.9209 N.ar    1  lig        -0.6315
     27 N2         18.0620   15.8894   17.7258 N.4     1  lig        -0.6917
@<TRIPOS>BOND
     1    19    26   ar
     2    18    26   ar
     3    19    20   ar
     4     4    19    1
     5    17    20   ar
     6    20    24    1
     7    16    17   ar
     8     2    17    1
     9    16    18   ar
    10     1    16    1
    11     3    18    1
    12    24    27    1
    13    23    27    1
    14    25    27    1
    15    15    27    1
    16    22    24    1
    17    11    24    1
    18    21    22    1
    19     7    22    1
    20     8    22    1
    21    21    23    1
    22     9    23    1
    23    10    23    1
    24    12    25    1
    25    13    25    1
    26    14    25    1
    27     5    21    1
    28     6    21    1
@<TRIPOS>SUBSTRUCTURE
     1 lig         1 TEMP              0 ****  ****    0 ROOT


########## Name:		ligand
########## HA_RMSDs:		3.4254
########## HA_RMSDh:		3.1927
########## HA_RMSDm:		2.1586
########## Cluster Size:	5
##########    Grid Score:          -10.589558
##########      Grid_vdw:           -3.053272
##########       Grid_es:           -7.536285
##########    Int_energy:            1.817297

@<TRIPOS>MOLECULE
ligand
 27 28 1 0 0
SMALL
No Charge or Current Charge


@<TRIPOS>ATOM
      1 H1         21.0820   16.6205   17.9916 H       1  lig         0.1727
      2 H2         19.1886   18.1701   17.8830 H       1  lig         0.1166
      3 H3         20.6765   14.2091   17.7487 H       1  lig         0.0550
      4 H4         16.5852   14.8159   17.4674 H       1  lig         0.0368
      5 H5         14.3809   19.1003   15.9503 H       1  lig         0.0978
      6 H6         15.8676   19.9649   15.5026 H       1  lig         0.0926
      7 H7         15.6144   17.1294   15.5711 H       1  lig         0.1004
      8 H8         17.1369   18.0462   15.5246 H       1  lig         0.0953
      9 H9         15.8920   20.7106   17.7834 H       1  lig         0.1060
     10 H10        14.7011   19.4494   18.2248 H       1  lig         0.1059
     11 H11        15.6277   17.0224   17.9850 H       1  lig         0.1048
     12 H12        16.8330   19.7617   20.0712 H       1  lig         0.1022
     13 H13        15.7805   18.3091   20.0257 H       1  lig         0.1051
     14 H14        17.5491   18.1131   19.9889 H       1  lig         0.1095
     15 H15        17.5711   19.1960   17.8343 H       1  lig         0.4480
     16 C1         20.0784   16.2458   17.8489 C.ar    1  lig        -0.2219
     17 C2         18.9952   17.1036   17.7891 C.ar    1  lig        -0.0966
     18 C3         19.8434   14.8894   17.7016 C.ar    1  lig         0.4389
     19 C4         17.5778   15.2349   17.4931 C.ar    1  lig         0.4345
     20 C5         17.7100   16.6011   17.6165 C.ar    1  lig        -0.2788
     21 C6         15.4409   19.2278   16.1869 C.3     1  lig        -0.1057
     22 C7         16.2027   17.8998   16.0763 C.3     1  lig        -0.0990
     23 C8         15.6170   19.6580   17.6651 C.3     1  lig         0.1129
     24 C9         16.5035   17.5025   17.5350 C.3     1  lig         0.2025
     25 C10        16.7138   18.7470   19.6798 C.3     1  lig         0.0877
     26 N1         18.6136   14.3962   17.5246 N.ar    1  lig        -0.6315
     27 N2         16.6615   18.7913   18.1871 N.4     1  lig        -0.6917
@<TRIPOS>BOND
     1    19    26   ar
     2    18    26   ar
     3    19    20   ar
     4     4    19    1
     5    17    20   ar
     6    20    24    1
     7    16    17   ar
     8     2    17    1
     9    16    18   ar
    10     1    16    1
    11     3    18    1
    12    24    27    1
    13    23    27    1
    14    25    27    1
    15    15    27    1
    16    22    24    1
    17    11    24    1
    18    21    22    1
    19     7    22    1
    20     8    22    1
    21    21    23    1
    22     9    23    1
    23    10    23    1
    24    12    25    1
    25    13    25    1
    26    14    25    1
    27     5    21    1
    28     6    21    1
@<TRIPOS>SUBSTRUCTURE
     1 lig         1 TEMP              0 ****  ****    0 ROOT


########## Name:		ligand
########## HA_RMSDs:		3.4013
########## HA_RMSDh:		3.1684
########## HA_RMSDm:		1.9192
########## Cluster Size:	1
##########    Grid Score:           -9.281965
##########      Grid_vdw:           -4.286648
##########       Grid_es:           -4.995317
##########    Int_energy:            1.632751

@<TRIPOS>MOLECULE
ligand
 27 28 1 0 0
SMALL
No Charge or Current Charge


@<TRIPOS>ATOM
      1 H1         14.1012   16.9463   18.5249 H       1  lig         0.1727
      2 H2         15.7045   18.6384   17.7737 H       1  lig         0.1166
      3 H3         14.7998   14.5927   18.6318 H       1  lig         0.0550
      4 H4         18.5460   15.5239   17.1201 H       1  lig         0.0368
      5 H5         19.7996   19.7958   14.7487 H       1  lig         0.0978
      6 H6         20.2679   18.1314   14.3380 H       1  lig         0.0926
      7 H7         17.6235   18.9361   15.0226 H       1  lig         0.1004
      8 H8         18.2377   17.2680   14.9909 H       1  lig         0.0953
      9 H9         21.5551   18.1984   16.3621 H       1  lig         0.1060
     10 H10        20.6591   19.6507   16.9023 H       1  lig         0.1059
     11 H11        18.1336   19.1933   17.3704 H       1  lig         0.1048
     12 H12        21.0795   17.7011   18.9208 H       1  lig         0.1022
     13 H13        19.8546   19.0053   19.0574 H       1  lig         0.1051
     14 H14        19.3704   17.3143   19.3290 H       1  lig         0.1095
     15 H15        19.8509   16.8598   17.0099 H       1  lig         0.4480
     16 C1         15.1014   16.6583   18.2339 C.ar    1  lig        -0.2219
     17 C2         16.0204   17.5977   17.8027 C.ar    1  lig        -0.0966
     18 C3         15.5052   15.3357   18.3007 C.ar    1  lig         0.4389
     19 C4         17.6010   15.8642   17.5110 C.ar    1  lig         0.4345
     20 C5         17.2991   17.2058   17.4216 C.ar    1  lig        -0.2788
     21 C6         19.8088   18.7614   15.1035 C.3     1  lig        -0.1057
     22 C7         18.3907   18.2648   15.4171 C.3     1  lig        -0.0990
     23 C8         20.5664   18.6588   16.4513 C.3     1  lig         0.1129
     24 C9         18.3342   18.1992   16.9561 C.3     1  lig         0.2025
     25 C10        20.0320   17.9741   18.7616 C.3     1  lig         0.0877
     26 N1         16.7349   14.9492   17.9469 N.ar    1  lig        -0.6315
     27 N2         19.7030   17.8622   17.3084 N.4     1  lig        -0.6917
@<TRIPOS>BOND
     1    19    26   ar
     2    18    26   ar
     3    19    20   ar
     4     4    19    1
     5    17    20   ar
     6    20    24    1
     7    16    17   ar
     8     2    17    1
     9    16    18   ar
    10     1    16    1
    11     3    18    1
    12    24    27    1
    13    23    27    1
    14    25    27    1
    15    15    27    1
    16    22    24    1
    17    11    24    1
    18    21    22    1
    19     7    22    1
    20     8    22    1
    21    21    23    1
    22     9    23    1
    23    10    23    1
    24    12    25    1
    25    13    25    1
    26    14    25    1
    27     5    21    1
    28     6    21    1
@<TRIPOS>SUBSTRUCTURE
     1 lig         1 TEMP              0 ****  ****    0 ROOT


########## Name:		ligand
########## HA_RMSDs:		3.2064
########## HA_RMSDh:		2.8250
########## HA_RMSDm:		1.7032
########## Cluster Size:	2
##########    Grid Score:           -6.787179
##########      Grid_vdw:           -0.179554
##########       Grid_es:           -6.607625
##########    Int_energy:            4.499482

@<TRIPOS>MOLECULE
ligand
 27 28 1 0 0
SMALL
No Charge or Current Charge


@<TRIPOS>ATOM
      1 H1         15.1223   20.3662   17.2486 H       1  lig         0.1727
      2 H2         17.0170   18.9082   17.7801 H       1  lig         0.1166
      3 H3         13.6509   19.7866   15.3677 H       1  lig         0.0550
      4 H4         15.9685   16.4787   14.4337 H       1  lig         0.0368
      5 H5         18.9114   13.7944   17.1183 H       1  lig         0.0978
      6 H6         18.0025   14.1662   18.5995 H       1  lig         0.0926
      7 H7         17.0173   14.5823   15.9603 H       1  lig         0.1004
      8 H8         16.3491   15.2812   17.4522 H       1  lig         0.0953
      9 H9         19.6816   15.8378   18.9805 H       1  lig         0.1060
     10 H10        20.2197   15.7076   17.2784 H       1  lig         0.1059
     11 H11        18.4243   16.5059   15.5620 H       1  lig         0.1048
     12 H12        20.0308   18.3634   18.2597 H       1  lig         0.1022
     13 H13        20.1000   17.9671   16.5110 H       1  lig         0.1051
     14 H14        18.8016   19.0202   17.1217 H       1  lig         0.1095
     15 H15        17.9399   17.1450   18.3693 H       1  lig         0.4480
     16 C1         15.3142   19.4836   16.6552 C.ar    1  lig        -0.2219
     17 C2         16.3813   18.6496   16.9360 C.ar    1  lig        -0.0966
     18 C3         14.4840   19.1454   15.6001 C.ar    1  lig         0.4389
     19 C4         15.7431   17.2807   15.1174 C.ar    1  lig         0.4345
     20 C5         16.6184   17.5247   16.1535 C.ar    1  lig        -0.2788
     21 C6         18.3933   14.5845   17.6689 C.3     1  lig        -0.1057
     22 C7         17.2515   15.1882   16.8394 C.3     1  lig        -0.0990
     23 C8         19.3510   15.7722   17.9394 C.3     1  lig         0.1129
     24 C9         17.7638   16.5839   16.4324 C.3     1  lig         0.2025
     25 C10        19.4458   18.1686   17.3559 C.3     1  lig         0.0877
     26 N1         14.6963   18.0610   14.8479 N.ar    1  lig        -0.6315
     27 N2         18.5963   16.9570   17.5634 N.4     1  lig        -0.6917
@<TRIPOS>BOND
     1    19    26   ar
     2    18    26   ar
     3    19    20   ar
     4     4    19    1
     5    17    20   ar
     6    20    24    1
     7    16    17   ar
     8     2    17    1
     9    16    18   ar
    10     1    16    1
    11     3    18    1
    12    24    27    1
    13    23    27    1
    14    25    27    1
    15    15    27    1
    16    22    24    1
    17    11    24    1
    18    21    22    1
    19     7    22    1
    20     8    22    1
    21    21    23    1
    22     9    23    1
    23    10    23    1
    24    12    25    1
    25    13    25    1
    26    14    25    1
    27     5    21    1
    28     6    21    1
@<TRIPOS>SUBSTRUCTURE
     1 lig         1 TEMP              0 ****  ****    0 ROOT


########## Name:		ligand
########## HA_RMSDs:		2.8752
########## HA_RMSDh:		2.7801
########## HA_RMSDm:		1.7091
########## Cluster Size:	5
##########    Grid Score:           -4.168788
##########      Grid_vdw:            3.328449
##########       Grid_es:           -7.497237
##########    Int_energy:            1.539226

@<TRIPOS>MOLECULE
ligand
 27 28 1 0 0
SMALL
No Charge or Current Charge


@<TRIPOS>ATOM
      1 H1         17.0081   13.6004   19.7996 H       1  lig         0.1727
      2 H2         17.7570   15.9256   19.6255 H       1  lig         0.1166
      3 H3         15.2732   12.7788   18.2653 H       1  lig         0.0550
      4 H4         14.8895   16.5210   16.5233 H       1  lig         0.0368
      5 H5         16.5002   20.8782   18.4021 H       1  lig         0.0978
      6 H6         15.0049   20.5356   17.5050 H       1  lig         0.0926
      7 H7         16.0366   18.9011   19.5961 H       1  lig         0.1004
      8 H8         14.7976   18.4310   18.4109 H       1  lig         0.0953
      9 H9         16.4421   20.2193   15.6094 H       1  lig         0.1060
     10 H10        17.8660   20.1072   16.6880 H       1  lig         0.1059
     11 H11        17.8262   18.0099   18.2392 H       1  lig         0.1048
     12 H12        17.8131   18.1912   14.5956 H       1  lig         0.1022
     13 H13        18.8511   18.0262   16.0500 H       1  lig         0.1051
     14 H14        17.7917   16.6789   15.5701 H       1  lig         0.1095
     15 H15        15.8858   18.0734   16.0586 H       1  lig         0.4480
     16 C1         16.5721   14.2597   19.0626 C.ar    1  lig        -0.2219
     17 C2         16.9778   15.5773   18.9509 C.ar    1  lig        -0.0966
     18 C3         15.6012   13.8014   18.1885 C.ar    1  lig         0.4389
     19 C4         15.4287   15.8669   17.1889 C.ar    1  lig         0.4345
     20 C5         16.3964   16.4132   18.0038 C.ar    1  lig        -0.2788
     21 C6         15.9832   20.1380   17.7851 C.3     1  lig        -0.1057
     22 C7         15.8196   18.8054   18.5291 C.3     1  lig        -0.0990
     23 C8         16.8313   19.7875   16.5365 C.3     1  lig         0.1129
     24 C9         16.8176   17.8525   17.8420 C.3     1  lig         0.2025
     25 C10        17.8956   17.7667   15.6006 C.3     1  lig         0.0877
     26 N1         15.0430   14.5932   17.2674 N.ar    1  lig        -0.6315
     27 N2         16.8223   18.3348   16.4714 N.4     1  lig        -0.6917
@<TRIPOS>BOND
     1    19    26   ar
     2    18    26   ar
     3    19    20   ar
     4     4    19    1
     5    17    20   ar
     6    20    24    1
     7    16    17   ar
     8     2    17    1
     9    16    18   ar
    10     1    16    1
    11     3    18    1
    12    24    27    1
    13    23    27    1
    14    25    27    1
    15    15    27    1
    16    22    24    1
    17    11    24    1
    18    21    22    1
    19     7    22    1
    20     8    22    1
    21    21    23    1
    22     9    23    1
    23    10    23    1
    24    12    25    1
    25    13    25    1
    26    14    25    1
    27     5    21    1
    28     6    21    1
@<TRIPOS>SUBSTRUCTURE
     1 lig         1 TEMP              0 ****  ****    0 ROOT


########## Name:		ligand
########## HA_RMSDs:		2.8576
########## HA_RMSDh:		2.6236
########## HA_RMSDm:		0.9560
########## Cluster Size:	2
##########    Grid Score:           -2.320488
##########      Grid_vdw:            1.668085
##########       Grid_es:           -3.988573
##########    Int_energy:            2.309978

@<TRIPOS>MOLECULE
ligand
 27 28 1 0 0
SMALL
No Charge or Current Charge


@<TRIPOS>ATOM
      1 H1         15.9868   16.2751   14.0068 H       1  lig         0.1727
      2 H2         17.9192   16.4780   15.4977 H       1  lig         0.1166
      3 H3         14.0997   17.8273   14.2676 H       1  lig         0.0550
      4 H4         15.9065   19.6465   17.5252 H       1  lig         0.0368
      5 H5         21.2273   18.8652   18.1673 H       1  lig         0.0978
      6 H6         21.3287   17.3150   17.3044 H       1  lig         0.0926
      7 H7         19.7149   19.5118   16.4809 H       1  lig         0.1004
      8 H8         19.5701   17.8328   15.9144 H       1  lig         0.0953
      9 H9         20.2821   16.3819   19.2518 H       1  lig         0.1060
     10 H10        19.8083   18.0184   19.8005 H       1  lig         0.1059
     11 H11        18.0791   19.1766   18.2274 H       1  lig         0.1048
     12 H12        17.7870   16.0463   20.0780 H       1  lig         0.1022
     13 H13        17.4497   17.8082   20.1182 H       1  lig         0.1051
     14 H14        16.5191   16.7611   19.0203 H       1  lig         0.1095
     15 H15        18.5514   16.3279   17.7966 H       1  lig         0.4480
     16 C1         16.0036   17.0327   14.7773 C.ar    1  lig        -0.2219
     17 C2         17.0832   17.1611   15.6323 C.ar    1  lig        -0.0966
     18 C3         14.9484   17.9169   14.9240 C.ar    1  lig         0.4389
     19 C4         15.9783   18.9583   16.6990 C.ar    1  lig         0.4345
     20 C5         17.0808   18.1349   16.6250 C.ar    1  lig        -0.2788
     21 C6         20.6478   18.0183   17.7893 C.3     1  lig        -0.1057
     22 C7         19.5675   18.4767   16.7998 C.3     1  lig        -0.0990
     23 C8         19.8619   17.3435   18.9418 C.3     1  lig         0.1129
     24 C9         18.2422   18.3154   17.5703 C.3     1  lig         0.2025
     25 C10        17.4929   16.9212   19.4907 C.3     1  lig         0.0877
     26 N1         14.9402   18.8634   15.8679 N.ar    1  lig        -0.6315
     27 N2         18.5122   17.1739   18.4278 N.4     1  lig        -0.6917
@<TRIPOS>BOND
     1    19    26   ar
     2    18    26   ar
     3    19    20   ar
     4     4    19    1
     5    17    20   ar
     6    20    24    1
     7    16    17   ar
     8     2    17    1
     9    16    18   ar
    10     1    16    1
    11     3    18    1
    12    24    27    1
    13    23    27    1
    14    25    27    1
    15    15    27    1
    16    22    24    1
    17    11    24    1
    18    21    22    1
    19     7    22    1
    20     8    22    1
    21    21    23    1
    22     9    23    1
    23    10    23    1
    24    12    25    1
    25    13    25    1
    26    14    25    1
    27     5    21    1
    28     6    21    1
@<TRIPOS>SUBSTRUCTURE
     1 lig         1 TEMP              0 ****  ****    0 ROOT


########## Name:		ligand
########## HA_RMSDs:		3.1211
########## HA_RMSDh:		2.8434
########## HA_RMSDm:		1.1411
########## Cluster Size:	2
##########    Grid Score:            1.012894
##########      Grid_vdw:            4.472042
##########       Grid_es:           -3.459148
##########    Int_energy:           14.568663

@<TRIPOS>MOLECULE
ligand
 27 28 1 0 0
SMALL
No Charge or Current Charge


@<TRIPOS>ATOM
      1 H1         15.5957   14.2977   15.5322 H       1  lig         0.1727
      2 H2         17.6299   15.6315   15.2476 H       1  lig         0.1166
      3 H3         14.6996   13.9405   17.7923 H       1  lig         0.0550
      4 H4         17.8516   16.0311   19.4894 H       1  lig         0.0368
      5 H5         21.4438   18.4779   18.5012 H       1  lig         0.0978
      6 H6         20.0354   19.4744   18.9277 H       1  lig         0.0926
      7 H7         20.1447   16.6422   19.2026 H       1  lig         0.1004
      8 H8         18.6755   17.6430   19.2275 H       1  lig         0.0953
      9 H9         19.8904   19.9341   16.5769 H       1  lig         0.1060
     10 H10        20.9851   18.5624   16.2252 H       1  lig         0.1059
     11 H11        19.9600   16.2401   16.8272 H       1  lig         0.1048
     12 H12        18.7489   18.7663   14.4904 H       1  lig         0.1022
     13 H13        19.7300   17.2728   14.6537 H       1  lig         0.1051
     14 H14        17.9606   17.1839   14.8250 H       1  lig         0.1095
     15 H15        18.1399   18.5230   16.8225 H       1  lig         0.4480
     16 C1         16.0986   14.7152   16.3929 C.ar    1  lig        -0.2219
     17 C2         17.2509   15.4676   16.2542 C.ar    1  lig        -0.0966
     18 C3         15.5944   14.5263   17.6683 C.ar    1  lig         0.4389
     19 C4         17.3174   15.7323   18.6023 C.ar    1  lig         0.4345
     20 C5         17.8899   15.9867   17.3749 C.ar    1  lig        -0.2788
     21 C6         20.3775   18.6356   18.3169 C.3     1  lig        -0.1057
     22 C7         19.5613   17.3769   18.6417 C.3     1  lig        -0.0990
     23 C8         20.1212   18.8902   16.8100 C.3     1  lig         0.1129
     24 C9         19.1417   16.8211   17.2665 C.3     1  lig         0.2025
     25 C10        18.8452   17.8023   14.9988 C.3     1  lig         0.0877
     26 N1         16.1945   15.0294   18.7517 N.ar    1  lig        -0.6315
     27 N2         19.0022   18.0267   16.4677 N.4     1  lig        -0.6917
@<TRIPOS>BOND
     1    19    26   ar
     2    18    26   ar
     3    19    20   ar
     4     4    19    1
     5    17    20   ar
     6    20    24    1
     7    16    17   ar
     8     2    17    1
     9    16    18   ar
    10     1    16    1
    11     3    18    1
    12    24    27    1
    13    23    27    1
    14    25    27    1
    15    15    27    1
    16    22    24    1
    17    11    24    1
    18    21    22    1
    19     7    22    1
    20     8    22    1
    21    21    23    1
    22     9    23    1
    23    10    23    1
    24    12    25    1
    25    13    25    1
    26    14    25    1
    27     5    21    1
    28     6    21    1
@<TRIPOS>SUBSTRUCTURE
     1 lig         1 TEMP              0 ****  ****    0 ROOT


########## Name:		ligand
########## HA_RMSDs:		2.4221
########## HA_RMSDh:		1.9381
########## HA_RMSDm:		1.0254
########## Cluster Size:	1
##########    Grid Score:            2.778736
##########      Grid_vdw:            8.525214
##########       Grid_es:           -5.746479
##########    Int_energy:           11.066161

@<TRIPOS>MOLECULE
ligand
 27 28 1 0 0
SMALL
No Charge or Current Charge


@<TRIPOS>ATOM
      1 H1         14.4807   17.3768   12.6863 H       1  lig         0.1727
      2 H2         15.0410   17.8771   15.0174 H       1  lig         0.1166
      3 H3         15.6218   15.5220   11.5477 H       1  lig         0.0550
      4 H4         17.9575   14.7661   14.8882 H       1  lig         0.0368
      5 H5         17.5270   15.6138   19.4821 H       1  lig         0.0978
      6 H6         15.8050   15.1993   19.3369 H       1  lig         0.0926
      7 H7         17.7595   14.6783   17.3326 H       1  lig         0.1004
      8 H8         15.9959   14.6601   17.1085 H       1  lig         0.0953
      9 H9         15.4319   17.5699   19.3369 H       1  lig         0.1060
     10 H10        17.1667   17.8586   19.0038 H       1  lig         0.1059
     11 H11        17.9284   16.9939   16.6632 H       1  lig         0.1048
     12 H12        15.3874   19.4753   17.4964 H       1  lig         0.1022
     13 H13        17.1090   19.2347   17.0515 H       1  lig         0.1051
     14 H14        15.8406   18.9562   15.8343 H       1  lig         0.1095
     15 H15        15.0528   17.1001   17.1571 H       1  lig         0.4480
     16 C1         15.2293   16.7942   13.2041 C.ar    1  lig        -0.2219
     17 C2         15.5633   17.0632   14.5190 C.ar    1  lig        -0.0966
     18 C3         15.8693   15.7416   12.5722 C.ar    1  lig         0.4389
     19 C4         17.1268   15.2915   14.4462 C.ar    1  lig         0.4345
     20 C5         16.5375   16.3094   15.1644 C.ar    1  lig        -0.2788
     21 C6         16.6274   15.7509   18.8755 C.3     1  lig        -0.1057
     22 C7         16.8453   15.2689   17.4346 C.3     1  lig        -0.0990
     23 C8         16.2927   17.2576   18.7378 C.3     1  lig         0.1129
     24 C9         16.9233   16.5628   16.6004 C.3     1  lig         0.2025
     25 C10        16.0898   18.8889   16.8966 C.3     1  lig         0.0877
     26 N1         16.7997   15.0038   13.1863 N.ar    1  lig        -0.6315
     27 N2         16.0333   17.4572   17.3209 N.4     1  lig        -0.6917
@<TRIPOS>BOND
     1    19    26   ar
     2    18    26   ar
     3    19    20   ar
     4     4    19    1
     5    17    20   ar
     6    20    24    1
     7    16    17   ar
     8     2    17    1
     9    16    18   ar
    10     1    16    1
    11     3    18    1
    12    24    27    1
    13    23    27    1
    14    25    27    1
    15    15    27    1
    16    22    24    1
    17    11    24    1
    18    21    22    1
    19     7    22    1
    20     8    22    1
    21    21    23    1
    22     9    23    1
    23    10    23    1
    24    12    25    1
    25    13    25    1
    26    14    25    1
    27     5    21    1
    28     6    21    1
@<TRIPOS>SUBSTRUCTURE
     1 lig         1 TEMP              0 ****  ****    0 ROOT


########## Name:		ligand
########## HA_RMSDs:		3.7736
########## HA_RMSDh:		3.4264
########## HA_RMSDm:		1.7477
########## Cluster Size:	2
##########    Grid Score:            8.868649
##########      Grid_vdw:           14.339605
##########       Grid_es:           -5.470956
##########    Int_energy:            3.936296

@<TRIPOS>MOLECULE
ligand
 27 28 1 0 0
SMALL
No Charge or Current Charge


@<TRIPOS>ATOM
      1 H1         18.8895   13.3151   17.2250 H       1  lig         0.1727
      2 H2         16.9095   14.7545   17.1504 H       1  lig         0.1166
      3 H3         21.0789   14.3087   17.7329 H       1  lig         0.0550
      4 H4         19.4310   18.1079   17.9236 H       1  lig         0.0368
      5 H5         14.9222   19.5442   18.8919 H       1  lig         0.0978
      6 H6         14.5587   18.0706   19.8163 H       1  lig         0.0926
      7 H7         17.1863   18.9536   19.1648 H       1  lig         0.1004
      8 H8         16.7340   17.3274   19.7233 H       1  lig         0.0953
      9 H9         13.5765   17.2663   17.7799 H       1  lig         0.1060
     10 H10        14.4001   18.5579   16.8541 H       1  lig         0.1059
     11 H11        16.9985   18.3241   16.8395 H       1  lig         0.1048
     12 H12        14.4611   16.0001   15.6270 H       1  lig         0.1022
     13 H13        15.5644   17.3369   15.1625 H       1  lig         0.1051
     14 H14        16.2400   15.7388   15.5596 H       1  lig         0.1095
     15 H15        15.4749   16.0376   17.8269 H       1  lig         0.4480
     16 C1         18.9807   14.3771   17.4033 C.ar    1  lig        -0.2219
     17 C2         17.8757   15.2079   17.3615 C.ar    1  lig        -0.0966
     18 C3         20.2092   14.9425   17.6996 C.ar    1  lig         0.4389
     19 C4         19.2817   17.0427   17.8565 C.ar    1  lig         0.4345
     20 C5         18.0152   16.5738   17.5824 C.ar    1  lig        -0.2788
     21 C6         15.0619   18.4602   18.9283 C.3     1  lig        -0.1057
     22 C7         16.5509   18.0885   18.9579 C.3     1  lig        -0.0990
     23 C8         14.5198   17.8015   17.6347 C.3     1  lig         0.1129
     24 C9         16.8348   17.5123   17.5567 C.3     1  lig         0.2025
     25 C10        15.4442   16.4536   15.7852 C.3     1  lig         0.0877
     26 N1         20.3533   16.2523   17.9240 N.ar    1  lig        -0.6315
     27 N2         15.5692   16.8891   17.2091 N.4     1  lig        -0.6917
@<TRIPOS>BOND
     1    19    26   ar
     2    18    26   ar
     3    19    20   ar
     4     4    19    1
     5    17    20   ar
     6    20    24    1
     7    16    17   ar
     8     2    17    1
     9    16    18   ar
    10     1    16    1
    11     3    18    1
    12    24    27    1
    13    23    27    1
    14    25    27    1
    15    15    27    1
    16    22    24    1
    17    11    24    1
    18    21    22    1
    19     7    22    1
    20     8    22    1
    21    21    23    1
    22     9    23    1
    23    10    23    1
    24    12    25    1
    25    13    25    1
    26    14    25    1
    27     5    21    1
    28     6    21    1
@<TRIPOS>SUBSTRUCTURE
     1 lig         1 TEMP              0 ****  ****    0 ROOT


########## Name:		ligand
########## HA_RMSDs:		3.4190
########## HA_RMSDh:		3.1068
########## HA_RMSDm:		1.2055
########## Cluster Size:	1
##########    Grid Score:           10.393800
##########      Grid_vdw:           17.202793
##########       Grid_es:           -6.808993
##########    Int_energy:            4.166287

@<TRIPOS>MOLECULE
ligand
 27 28 1 0 0
SMALL
No Charge or Current Charge


@<TRIPOS>ATOM
      1 H1         14.9999   12.9615   17.2988 H       1  lig         0.1727
      2 H2         14.6228   15.1861   16.3463 H       1  lig         0.1166
      3 H3         16.3928   12.7363   19.3107 H       1  lig         0.0550
      4 H4         17.1773   16.8068   19.3544 H       1  lig         0.0368
      5 H5         15.9534   19.7624   15.0943 H       1  lig         0.0978
      6 H6         17.6530   19.4665   15.5210 H       1  lig         0.0926
      7 H7         15.7183   17.4185   15.1073 H       1  lig         0.1004
      8 H8         17.2946   17.2269   15.9068 H       1  lig         0.0953
      9 H9         17.1110   20.5157   17.6101 H       1  lig         0.1060
     10 H10        15.3639   20.3267   17.2696 H       1  lig         0.1059
     11 H11        14.5868   17.8372   17.2009 H       1  lig         0.1048
     12 H12        16.1245   19.7046   19.9316 H       1  lig         0.1022
     13 H13        14.5672   19.1820   19.2095 H       1  lig         0.1051
     14 H14        15.6173   17.9795   19.9964 H       1  lig         0.1095
     15 H15        17.2550   18.3560   18.2666 H       1  lig         0.4480
     16 C1         15.4503   13.8325   17.7531 C.ar    1  lig        -0.2219
     17 C2         15.2534   15.0969   17.2283 C.ar    1  lig        -0.0966
     18 C3         16.2283   13.7146   18.8922 C.ar    1  lig         0.4389
     19 C4         16.6184   15.9819   18.9435 C.ar    1  lig         0.4345
     20 C5         15.8511   16.2041   17.8207 C.ar    1  lig        -0.2788
     21 C6         16.6180   19.2875   15.8214 C.3     1  lig        -0.1057
     22 C7         16.3497   17.7796   15.9233 C.3     1  lig        -0.0990
     23 C8         16.3387   19.8317   17.2452 C.3     1  lig         0.1129
     24 C9         15.6530   17.6007   17.2866 C.3     1  lig         0.2025
     25 C10        15.5986   18.9007   19.4080 C.3     1  lig         0.0877
     26 N1         16.7990   14.7731   19.4760 N.ar    1  lig        -0.6315
     27 N2         16.2562   18.6507   18.0897 N.4     1  lig        -0.6917
@<TRIPOS>BOND
     1    19    26   ar
     2    18    26   ar
     3    19    20   ar
     4     4    19    1
     5    17    20   ar
     6    20    24    1
     7    16    17   ar
     8     2    17    1
     9    16    18   ar
    10     1    16    1
    11     3    18    1
    12    24    27    1
    13    23    27    1
    14    25    27    1
    15    15    27    1
    16    22    24    1
    17    11    24    1
    18    21    22    1
    19     7    22    1
    20     8    22    1
    21    21    23    1
    22     9    23    1
    23    10    23    1
    24    12    25    1
    25    13    25    1
    26    14    25    1
    27     5    21    1
    28     6    21    1
@<TRIPOS>SUBSTRUCTURE
     1 lig         1 TEMP              0 ****  ****    0 ROOT


########## Name:		ligand
########## HA_RMSDs:		4.2896
########## HA_RMSDh:		3.8540
########## HA_RMSDm:		1.8215
########## Cluster Size:	2
##########    Grid Score:           11.036140
##########      Grid_vdw:           15.817447
##########       Grid_es:           -4.781306
##########    Int_energy:            1.838960

@<TRIPOS>MOLECULE
ligand
 27 28 1 0 0
SMALL
No Charge or Current Charge


@<TRIPOS>ATOM
      1 H1         14.9644   18.0457   19.6771 H       1  lig         0.1727
      2 H2         15.9030   16.3671   18.1608 H       1  lig         0.1166
      3 H3         14.8781   20.3955   18.9631 H       1  lig         0.0550
      4 H4         16.7671   19.4902   15.3857 H       1  lig         0.0368
      5 H5         16.7618   14.9623   13.1561 H       1  lig         0.0978
      6 H6         15.6347   14.1688   14.2779 H       1  lig         0.0926
      7 H7         15.7364   16.9772   13.8181 H       1  lig         0.1004
      8 H8         14.9352   16.1655   15.1818 H       1  lig         0.0953
      9 H9         17.5936   13.6058   15.5445 H       1  lig         0.1060
     10 H10        18.5495   14.8134   14.6324 H       1  lig         0.1059
     11 H11        17.7883   17.2719   15.0597 H       1  lig         0.1048
     12 H12        19.0302   14.7913   17.4289 H       1  lig         0.1022
     13 H13        19.4923   16.1608   16.3656 H       1  lig         0.1051
     14 H14        18.5370   16.4735   17.8344 H       1  lig         0.1095
     15 H15        16.7187   15.2306   16.8523 H       1  lig         0.4480
     16 C1         15.3457   18.3381   18.7091 C.ar    1  lig        -0.2219
     17 C2         15.8837   17.4065   17.8399 C.ar    1  lig        -0.0966
     18 C3         15.2916   19.6584   18.2961 C.ar    1  lig         0.4389
     19 C4         16.2929   19.1433   16.2892 C.ar    1  lig         0.4345
     20 C5         16.3798   17.8043   16.6031 C.ar    1  lig        -0.2788
     21 C6         16.4178   14.9260   14.1935 C.3     1  lig        -0.1057
     22 C7         15.8867   16.2902   14.6550 C.3     1  lig        -0.0990
     23 C8         17.6025   14.6248   15.1457 C.3     1  lig         0.1129
     24 C9         16.9643   16.8191   15.6220 C.3     1  lig         0.2025
     25 C10        18.7262   15.7621   17.0262 C.3     1  lig         0.0877
     26 N1         15.7558   20.0503   17.1054 N.ar    1  lig        -0.6315
     27 N2         17.4796   15.5986   16.2187 N.4     1  lig        -0.6917
@<TRIPOS>BOND
     1    19    26   ar
     2    18    26   ar
     3    19    20   ar
     4     4    19    1
     5    17    20   ar
     6    20    24    1
     7    16    17   ar
     8     2    17    1
     9    16    18   ar
    10     1    16    1
    11     3    18    1
    12    24    27    1
    13    23    27    1
    14    25    27    1
    15    15    27    1
    16    22    24    1
    17    11    24    1
    18    21    22    1
    19     7    22    1
    20     8    22    1
    21    21    23    1
    22     9    23    1
    23    10    23    1
    24    12    25    1
    25    13    25    1
    26    14    25    1
    27     5    21    1
    28     6    21    1
@<TRIPOS>SUBSTRUCTURE
     1 lig         1 TEMP              0 ****  ****    0 ROOT


########## Name:		ligand
########## HA_RMSDs:		4.3174
########## HA_RMSDh:		3.8708
########## HA_RMSDm:		1.9162
########## Cluster Size:	1
##########    Grid Score:           19.840311
##########      Grid_vdw:           24.727283
##########       Grid_es:           -4.886972
##########    Int_energy:           17.305004

@<TRIPOS>MOLECULE
ligand
 27 28 1 0 0
SMALL
No Charge or Current Charge


@<TRIPOS>ATOM
      1 H1         14.5407   20.3655   16.2754 H       1  lig         0.1727
      2 H2         14.8398   17.9479   16.0227 H       1  lig         0.1166
      3 H3         16.0111   21.6046   17.8054 H       1  lig         0.0550
      4 H4         17.9336   18.1164   18.9554 H       1  lig         0.0368
      5 H5         18.0415   13.7127   18.2527 H       1  lig         0.0978
      6 H6         19.4533   14.6408   17.7015 H       1  lig         0.0926
      7 H7         17.3660   15.6992   19.3236 H       1  lig         0.1004
      8 H8         18.5740   16.6412   18.4213 H       1  lig         0.0953
      9 H9         18.5399   14.3566   15.5007 H       1  lig         0.1060
     10 H10        16.9652   13.8716   16.1998 H       1  lig         0.1059
     11 H11        15.7774   15.7929   17.5053 H       1  lig         0.1048
     12 H12        16.7842   15.6567   14.0015 H       1  lig         0.1022
     13 H13        15.4340   15.3750   15.1493 H       1  lig         0.1051
     14 H14        15.9578   17.0401   14.8019 H       1  lig         0.1095
     15 H15        18.0681   16.5399   15.8564 H       1  lig         0.4480
     16 C1         15.3044   19.8489   16.8391 C.ar    1  lig        -0.2219
     17 C2         15.4868   18.4836   16.7141 C.ar    1  lig        -0.0966
     18 C3         16.1429   20.5417   17.6956 C.ar    1  lig         0.4389
     19 C4         17.2426   18.6102   18.2920 C.ar    1  lig         0.4345
     20 C5         16.4675   17.8351   17.4568 C.ar    1  lig        -0.2788
     21 C6         18.3615   14.6034   17.7047 C.3     1  lig        -0.1057
     22 C7         17.7900   15.8821   18.3329 C.3     1  lig        -0.0990
     23 C8         17.7906   14.5862   16.2643 C.3     1  lig         0.1129
     24 C9         16.7062   16.3503   17.3418 C.3     1  lig         0.2025
     25 C10        16.2888   16.0042   14.9130 C.3     1  lig         0.0877
     26 N1         17.0958   19.9303   18.4063 N.ar    1  lig        -0.6315
     27 N2         17.2402   15.9169   16.0619 N.4     1  lig        -0.6917
@<TRIPOS>BOND
     1    19    26   ar
     2    18    26   ar
     3    19    20   ar
     4     4    19    1
     5    17    20   ar
     6    20    24    1
     7    16    17   ar
     8     2    17    1
     9    16    18   ar
    10     1    16    1
    11     3    18    1
    12    24    27    1
    13    23    27    1
    14    25    27    1
    15    15    27    1
    16    22    24    1
    17    11    24    1
    18    21    22    1
    19     7    22    1
    20     8    22    1
    21    21    23    1
    22     9    23    1
    23    10    23    1
    24    12    25    1
    25    13    25    1
    26    14    25    1
    27     5    21    1
    28     6    21    1
@<TRIPOS>SUBSTRUCTURE
     1 lig         1 TEMP              0 ****  ****    0 ROOT


########## Name:		ligand
########## HA_RMSDs:		2.8288
########## HA_RMSDh:		2.7658
########## HA_RMSDm:		0.5991
########## Cluster Size:	1
##########    Grid Score:           24.025387
##########      Grid_vdw:           27.479067
##########       Grid_es:           -3.453679
##########    Int_energy:           11.327344

@<TRIPOS>MOLECULE
ligand
 27 28 1 0 0
SMALL
No Charge or Current Charge


@<TRIPOS>ATOM
      1 H1         15.8250   16.0971   13.4883 H       1  lig         0.1727
      2 H2         17.9749   16.0725   14.6611 H       1  lig         0.1166
      3 H3         14.0995   17.7059   14.1762 H       1  lig         0.0550
      4 H4         16.4993   19.1338   17.2402 H       1  lig         0.0368
      5 H5         20.3715   17.9077   19.4117 H       1  lig         0.0978
      6 H6         19.6058   19.5105   19.3560 H       1  lig         0.0926
      7 H7         18.2495   17.0610   18.8375 H       1  lig         0.1004
      8 H8         17.6702   18.6896   18.4218 H       1  lig         0.0953
      9 H9         21.0386   19.9173   17.4744 H       1  lig         0.1060
     10 H10        21.3759   18.1652   17.3326 H       1  lig         0.1059
     11 H11        19.2802   16.7584   16.6731 H       1  lig         0.1048
     12 H12        20.8991   19.4818   14.8646 H       1  lig         0.1022
     13 H13        20.8125   17.6999   15.0579 H       1  lig         0.1051
     14 H14        19.4517   18.5689   14.3089 H       1  lig         0.1095
     15 H15        19.0528   19.6583   16.4230 H       1  lig         0.4480
     16 C1         16.0077   16.7797   14.3061 C.ar    1  lig        -0.2219
     17 C2         17.2131   16.7789   14.9841 C.ar    1  lig        -0.0966
     18 C3         15.0440   17.6954   14.6929 C.ar    1  lig         0.4389
     19 C4         16.3994   18.5212   16.3591 C.ar    1  lig         0.4345
     20 C5         17.4248   17.6572   16.0413 C.ar    1  lig        -0.2788
     21 C6         19.8088   18.6030   18.7825 C.3     1  lig        -0.1057
     22 C7         18.4935   17.9788   18.2964 C.3     1  lig        -0.0990
     23 C8         20.5962   18.9165   17.4852 C.3     1  lig         0.1129
     24 C9         18.7282   17.6962   16.7994 C.3     1  lig         0.2025
     25 C10        20.2444   18.6271   15.0594 C.3     1  lig         0.0877
     26 N1         15.2406   18.5513   15.7007 N.ar    1  lig        -0.6315
     27 N2         19.6258   18.7710   16.4120 N.4     1  lig        -0.6917
@<TRIPOS>BOND
     1    19    26   ar
     2    18    26   ar
     3    19    20   ar
     4     4    19    1
     5    17    20   ar
     6    20    24    1
     7    16    17   ar
     8     2    17    1
     9    16    18   ar
    10     1    16    1
    11     3    18    1
    12    24    27    1
    13    23    27    1
    14    25    27    1
    15    15    27    1
    16    22    24    1
    17    11    24    1
    18    21    22    1
    19     7    22    1
    20     8    22    1
    21    21    23    1
    22     9    23    1
    23    10    23    1
    24    12    25    1
    25    13    25    1
    26    14    25    1
    27     5    21    1
    28     6    21    1
@<TRIPOS>SUBSTRUCTURE
     1 lig         1 TEMP              0 ****  ****    0 ROOT


########## Name:		ligand
########## HA_RMSDs:		4.0174
########## HA_RMSDh:		3.7687
########## HA_RMSDm:		2.1607
########## Cluster Size:	1
##########    Grid Score:           24.273792
##########      Grid_vdw:           27.056376
##########       Grid_es:           -2.782582
##########    Int_energy:            2.532711

@<TRIPOS>MOLECULE
ligand
 27 28 1 0 0
SMALL
No Charge or Current Charge


@<TRIPOS>ATOM
      1 H1         20.9416   18.1212   17.7339 H       1  lig         0.1727
      2 H2         19.1738   18.9569   16.2592 H       1  lig         0.1166
      3 H3         20.6996   15.9024   18.7621 H       1  lig         0.0550
      4 H4         16.9557   15.4003   17.0541 H       1  lig         0.0368
      5 H5         14.2833   19.3555   14.9988 H       1  lig         0.0978
      6 H6         13.6831   18.2997   16.2962 H       1  lig         0.0926
      7 H7         16.2020   19.6272   16.3383 H       1  lig         0.1004
      8 H8         15.7115   18.2739   17.3817 H       1  lig         0.0953
      9 H9         13.8604   16.5349   14.6798 H       1  lig         0.1060
     10 H10        14.8835   17.5704   13.6383 H       1  lig         0.1059
     11 H11        17.1933   18.1485   14.7045 H       1  lig         0.1048
     12 H12        15.7772   14.8884   13.8830 H       1  lig         0.1022
     13 H13        16.8245   16.2208   13.2934 H       1  lig         0.1051
     14 H14        17.3960   15.1740   14.6145 H       1  lig         0.1095
     15 H15        15.6303   16.0519   16.0027 H       1  lig         0.4480
     16 C1         20.0604   17.5242   17.5466 C.ar    1  lig        -0.2219
     17 C2         19.0489   17.9795   16.7205 C.ar    1  lig        -0.0966
     18 C3         19.9215   16.2692   18.1145 C.ar    1  lig         0.4389
     19 C4         17.8667   15.9721   17.1221 C.ar    1  lig         0.4345
     20 C5         17.9175   17.2013   16.5010 C.ar    1  lig        -0.2788
     21 C6         14.5008   18.4616   15.5900 C.3     1  lig        -0.1057
     22 C7         15.8312   18.5989   16.3432 C.3     1  lig        -0.0990
     23 C8         14.7004   17.2359   14.6632 C.3     1  lig         0.1129
     24 C9         16.7973   17.6559   15.5992 C.3     1  lig         0.2025
     25 C10        16.5183   15.6432   14.1623 C.3     1  lig         0.0877
     26 N1         18.8433   15.5082   17.9020 N.ar    1  lig        -0.6315
     27 N2         15.9148   16.5956   15.1429 N.4     1  lig        -0.6917
@<TRIPOS>BOND
     1    19    26   ar
     2    18    26   ar
     3    19    20   ar
     4     4    19    1
     5    17    20   ar
     6    20    24    1
     7    16    17   ar
     8     2    17    1
     9    16    18   ar
    10     1    16    1
    11     3    18    1
    12    24    27    1
    13    23    27    1
    14    25    27    1
    15    15    27    1
    16    22    24    1
    17    11    24    1
    18    21    22    1
    19     7    22    1
    20     8    22    1
    21    21    23    1
    22     9    23    1
    23    10    23    1
    24    12    25    1
    25    13    25    1
    26    14    25    1
    27     5    21    1
    28     6    21    1
@<TRIPOS>SUBSTRUCTURE
     1 lig         1 TEMP              0 ****  ****    0 ROOT

