
########## Name:		ligand
########## HA_RMSDs:		13.1183
########## HA_RMSDh:		13.0752
########## HA_RMSDm:		10.8646
########## Cluster Size:	1
##########    Grid Score:          -27.718000
##########      Grid_vdw:          -18.906170
##########       Grid_es:           -8.811831
##########    Int_energy:            2.000517

@<TRIPOS>MOLECULE
ligand
 24 24 1 0 0
SMALL
No Charge or Current Charge


@<TRIPOS>ATOM
      1 H1         25.0164    5.5064   15.0645 H       1  lig         0.1340
      2 H2         25.7519    9.5969   14.0937 H       1  lig         0.1340
      3 H3         26.1085    5.8585   17.2168 H       1  lig         0.1475
      4 H4         26.9003    9.9466   16.2450 H       1  lig         0.1475
      5 H5         25.0951    8.0042   12.3809 H       1  lig         0.0877
      6 H6         24.8569    6.3161   12.7038 H       1  lig         0.0877
      7 H7         22.8498    8.3152   13.8032 H       1  lig         0.0966
      8 H8         22.7718    5.9556   14.4460 H       1  lig         0.4431
      9 H9         21.4615    6.2901   13.4845 H       1  lig         0.4431
     10 H10        22.7766    5.4952   12.8416 H       1  lig         0.4431
     11 H11        26.4098    7.9132   18.6941 H       1  lig         0.4214
     12 C1         25.4302    6.4818   15.3079 C.ar    1  lig        -0.0999
     13 C2         25.8442    8.7673   14.7907 C.ar    1  lig        -0.0999
     14 C3         26.0382    6.6834   16.5163 C.ar    1  lig        -0.1787
     15 C4         26.4959    8.9717   15.9919 C.ar    1  lig        -0.1787
     16 C5         25.3362    7.5229   14.4361 C.ar    1  lig        -0.1394
     17 C6         26.5956    7.8876   16.8560 C.ar    1  lig         0.1292
     18 C7         22.6706    7.9714   11.7304 C.2     1  lig         0.9321
     19 C8         24.6425    7.3148   13.1032 C.3     1  lig        -0.0452
     20 C9         23.1284    7.5281   13.1010 C.3     1  lig        -0.0740
     21 N1         22.5015    6.2680   13.4982 N.4     1  lig        -0.8252
     22 O1         23.0926    9.0713   11.3803 O.co2   1  lig        -0.7573
     23 O2         21.8902    7.2924   11.0032 O.co2   1  lig        -0.7573
     24 O3         27.1305    8.0041   18.0056 O.3     1  lig        -0.4913
@<TRIPOS>BOND
     1     1    12    1
     2     2    13    1
     3     3    14    1
     4     4    15    1
     5     5    19    1
     6     6    19    1
     7     7    20    1
     8     8    21    1
     9     9    21    1
    10    10    21    1
    11    11    24    1
    12    12    14   ar
    13    12    16   ar
    14    13    15   ar
    15    13    16   ar
    16    14    17   ar
    17    15    17   ar
    18    16    19    1
    19    17    24    1
    20    18    20    1
    21    18    22    1
    22    18    23    1
    23    19    20    1
    24    20    21    1
@<TRIPOS>SUBSTRUCTURE
     1 lig         1 TEMP              0 ****  ****    0 ROOT


########## Name:		ligand
########## HA_RMSDs:		14.3147
########## HA_RMSDh:		14.2404
########## HA_RMSDm:		12.1512
########## Cluster Size:	1
##########    Grid Score:          -26.841328
##########      Grid_vdw:          -18.330681
##########       Grid_es:           -8.510648
##########    Int_energy:            1.184258

@<TRIPOS>MOLECULE
ligand
 24 24 1 0 0
SMALL
No Charge or Current Charge


@<TRIPOS>ATOM
      1 H1         25.6526    5.0042   14.1404 H       1  lig         0.1340
      2 H2         24.1264    8.9473   13.5592 H       1  lig         0.1340
      3 H3         23.7441    4.1222   12.9041 H       1  lig         0.1475
      4 H4         22.1704    8.0597   12.3528 H       1  lig         0.1475
      5 H5         25.8131    8.2915   15.4467 H       1  lig         0.0877
      6 H6         26.6820    6.7983   15.2860 H       1  lig         0.0877
      7 H7         26.7713    8.9224   13.0943 H       1  lig         0.0966
      8 H8         27.4967    6.6469   12.5625 H       1  lig         0.4431
      9 H9         28.8299    7.6332   12.6147 H       1  lig         0.4431
     10 H10        28.4948    6.6284   13.9002 H       1  lig         0.4431
     11 H11        21.1256    6.1374   11.8921 H       1  lig         0.4214
     12 C1         24.8941    5.6835   13.7598 C.ar    1  lig        -0.0999
     13 C2         24.0286    7.8736   13.4175 C.ar    1  lig        -0.0999
     14 C3         23.8257    5.1922   13.0615 C.ar    1  lig        -0.1787
     15 C4         22.9246    7.3850   12.7453 C.ar    1  lig        -0.1787
     16 C5         24.9968    7.0279   13.9465 C.ar    1  lig        -0.1394
     17 C6         22.8334    6.0074   12.5851 C.ar    1  lig         0.1292
     18 C7         28.0954    9.1888   14.7138 C.2     1  lig         0.9321
     19 C8         26.1906    7.5839   14.6993 C.3     1  lig        -0.0452
     20 C9         27.2452    8.2894   13.8460 C.3     1  lig        -0.0740
     21 N1         28.0473    7.2585   13.1884 N.4     1  lig        -0.8252
     22 O1         28.8578    8.5957   15.4738 O.co2   1  lig        -0.7573
     23 O2         28.0179   10.4507   14.6953 O.co2   1  lig        -0.7573
     24 O3         21.8781    5.4786   11.9300 O.3     1  lig        -0.4913
@<TRIPOS>BOND
     1     1    12    1
     2     2    13    1
     3     3    14    1
     4     4    15    1
     5     5    19    1
     6     6    19    1
     7     7    20    1
     8     8    21    1
     9     9    21    1
    10    10    21    1
    11    11    24    1
    12    12    14   ar
    13    12    16   ar
    14    13    15   ar
    15    13    16   ar
    16    14    17   ar
    17    15    17   ar
    18    16    19    1
    19    17    24    1
    20    18    20    1
    21    18    22    1
    22    18    23    1
    23    19    20    1
    24    20    21    1
@<TRIPOS>SUBSTRUCTURE
     1 lig         1 TEMP              0 ****  ****    0 ROOT


########## Name:		ligand
########## HA_RMSDs:		14.5880
########## HA_RMSDh:		14.5268
########## HA_RMSDm:		12.0487
########## Cluster Size:	2
##########    Grid Score:          -25.927628
##########      Grid_vdw:          -17.582214
##########       Grid_es:           -8.345414
##########    Int_energy:            1.055092

@<TRIPOS>MOLECULE
ligand
 24 24 1 0 0
SMALL
No Charge or Current Charge


@<TRIPOS>ATOM
      1 H1         25.8460    4.6125   13.2691 H       1  lig         0.1340
      2 H2         23.6535    8.2375   13.7869 H       1  lig         0.1340
      3 H3         23.9817    3.7115   11.9800 H       1  lig         0.1475
      4 H4         21.7469    7.3155   12.5284 H       1  lig         0.1475
      5 H5         25.6072    7.5758   15.2802 H       1  lig         0.0877
      6 H6         26.6298    6.2421   14.8487 H       1  lig         0.0877
      7 H7         26.3673    8.5852   12.9285 H       1  lig         0.0966
      8 H8         27.5170    6.5316   12.2594 H       1  lig         0.4431
      9 H9         28.6399    7.7420   12.4238 H       1  lig         0.4431
     10 H10        28.4768    6.5978   13.6232 H       1  lig         0.4431
     11 H11        21.0403    5.5120   11.5089 H       1  lig         0.4214
     12 C1         24.9518    5.2124   13.1197 C.ar    1  lig        -0.0999
     13 C2         23.7145    7.2271   13.3895 C.ar    1  lig        -0.0999
     14 C3         23.9071    4.7117   12.3926 C.ar    1  lig        -0.1787
     15 C4         22.6373    6.7165   12.6908 C.ar    1  lig        -0.1787
     16 C5         24.8571    6.4717   13.6274 C.ar    1  lig        -0.1394
     17 C6         22.7516    5.4213   12.1996 C.ar    1  lig         0.1292
     18 C7         27.5887    8.9699   14.6040 C.2     1  lig         0.9321
     19 C8         26.0202    7.0442   14.4150 C.3     1  lig        -0.0452
     20 C9         26.9383    7.9964   13.6479 C.3     1  lig        -0.0740
     21 N1         27.9315    7.1857   12.9443 N.4     1  lig        -0.8252
     22 O1         26.9894   10.0346   14.7373 O.co2   1  lig        -0.7573
     23 O2         28.6784    8.7367   15.2015 O.co2   1  lig        -0.7573
     24 O3         21.8285    4.8954   11.4976 O.3     1  lig        -0.4913
@<TRIPOS>BOND
     1     1    12    1
     2     2    13    1
     3     3    14    1
     4     4    15    1
     5     5    19    1
     6     6    19    1
     7     7    20    1
     8     8    21    1
     9     9    21    1
    10    10    21    1
    11    11    24    1
    12    12    14   ar
    13    12    16   ar
    14    13    15   ar
    15    13    16   ar
    16    14    17   ar
    17    15    17   ar
    18    16    19    1
    19    17    24    1
    20    18    20    1
    21    18    22    1
    22    18    23    1
    23    19    20    1
    24    20    21    1
@<TRIPOS>SUBSTRUCTURE
     1 lig         1 TEMP              0 ****  ****    0 ROOT


########## Name:		ligand
########## HA_RMSDs:		12.3875
########## HA_RMSDh:		12.3566
########## HA_RMSDm:		10.5692
########## Cluster Size:	3
##########    Grid Score:          -25.764713
##########      Grid_vdw:          -20.425303
##########       Grid_es:           -5.339410
##########    Int_energy:            7.599405

@<TRIPOS>MOLECULE
ligand
 24 24 1 0 0
SMALL
No Charge or Current Charge


@<TRIPOS>ATOM
      1 H1         12.1487    9.3702   22.5168 H       1  lig         0.1340
      2 H2          7.9695    9.7566   23.2917 H       1  lig         0.1340
      3 H3         12.4941   11.5877   23.4719 H       1  lig         0.1475
      4 H4          8.3046   12.0172   24.2118 H       1  lig         0.1475
      5 H5         10.7629    7.5010   22.3283 H       1  lig         0.0877
      6 H6          9.1125    7.4769   22.8634 H       1  lig         0.0877
      7 H7          9.6969    7.0896   20.3054 H       1  lig         0.0966
      8 H8         10.9296    9.1934   20.1020 H       1  lig         0.4431
      9 H9          9.5964    9.2590   19.1165 H       1  lig         0.4431
     10 H10         9.5823   10.0551   20.5795 H       1  lig         0.4431
     11 H11        10.1985   13.7805   23.8525 H       1  lig         0.4214
     12 C1         11.2978    9.9417   22.8786 C.ar    1  lig        -0.0999
     13 C2          8.9724   10.1757   23.3265 C.ar    1  lig        -0.0999
     14 C3         11.4892   11.1832   23.4196 C.ar    1  lig        -0.1787
     15 C4          9.1492   11.4470   23.8382 C.ar    1  lig        -0.1787
     16 C5         10.0357    9.4346   22.8238 C.ar    1  lig        -0.1394
     17 C6         10.4448   11.9494   23.8650 C.ar    1  lig         0.1292
     18 C7          7.8357    7.9811   20.7389 C.2     1  lig         0.9321
     19 C8          9.8168    8.0488   22.2472 C.3     1  lig        -0.0452
     20 C9          9.3461    8.0003   20.7932 C.3     1  lig        -0.0740
     21 N1          9.8960    9.1697   20.1086 N.4     1  lig        -0.8252
     22 O1          7.2955    7.4363   21.6991 O.co2   1  lig        -0.7573
     23 O2          7.1671    8.4538   19.7754 O.co2   1  lig        -0.7573
     24 O3         10.7029   13.0889   24.3711 O.3     1  lig        -0.4913
@<TRIPOS>BOND
     1     1    12    1
     2     2    13    1
     3     3    14    1
     4     4    15    1
     5     5    19    1
     6     6    19    1
     7     7    20    1
     8     8    21    1
     9     9    21    1
    10    10    21    1
    11    11    24    1
    12    12    14   ar
    13    12    16   ar
    14    13    15   ar
    15    13    16   ar
    16    14    17   ar
    17    15    17   ar
    18    16    19    1
    19    17    24    1
    20    18    20    1
    21    18    22    1
    22    18    23    1
    23    19    20    1
    24    20    21    1
@<TRIPOS>SUBSTRUCTURE
     1 lig         1 TEMP              0 ****  ****    0 ROOT


########## Name:		ligand
########## HA_RMSDs:		13.4393
########## HA_RMSDh:		13.3489
########## HA_RMSDm:		11.1805
########## Cluster Size:	6
##########    Grid Score:          -25.589039
##########      Grid_vdw:          -19.471470
##########       Grid_es:           -6.117568
##########    Int_energy:            1.482804

@<TRIPOS>MOLECULE
ligand
 24 24 1 0 0
SMALL
No Charge or Current Charge


@<TRIPOS>ATOM
      1 H1          9.4748    7.0637   19.5588 H       1  lig         0.1340
      2 H2          8.5722    9.8624   22.6521 H       1  lig         0.1340
      3 H3          7.4640    5.8165   20.1502 H       1  lig         0.1475
      4 H4          6.5669    8.5801   23.2873 H       1  lig         0.1475
      5 H5         10.9874    8.7062   20.0122 H       1  lig         0.0877
      6 H6         10.1341   10.2121   20.1332 H       1  lig         0.0877
      7 H7         10.7528    9.6968   22.8146 H       1  lig         0.0966
      8 H8         10.9799   11.7849   21.5596 H       1  lig         0.4431
      9 H9         12.4140   11.4680   22.3317 H       1  lig         0.4431
     10 H10        12.2664   11.1559   20.7022 H       1  lig         0.4431
     11 H11         5.2257    6.9757   22.4936 H       1  lig         0.4214
     12 C1          8.8503    7.4031   20.3813 C.ar    1  lig        -0.0999
     13 C2          8.3236    8.9551   22.1065 C.ar    1  lig        -0.0999
     14 C3          7.7192    6.7087   20.7115 C.ar    1  lig        -0.1787
     15 C4          7.2005    8.2393   22.4747 C.ar    1  lig        -0.1787
     16 C5          9.1611    8.5274   21.0828 C.ar    1  lig        -0.1394
     17 C6          6.9160    7.0845   21.7554 C.ar    1  lig         0.1292
     18 C7         12.4635    8.7754   21.9953 C.2     1  lig         0.9321
     19 C8         10.4009    9.3172   20.7082 C.3     1  lig        -0.0452
     20 C9         11.3009    9.7336   21.8721 C.3     1  lig        -0.0740
     21 N1         11.7530   11.1008   21.6173 N.4     1  lig        -0.8252
     22 O1         12.3368    7.9268   22.8753 O.co2   1  lig        -0.7573
     23 O2         13.5042    8.8473   21.2807 O.co2   1  lig        -0.7573
     24 O3          5.8706    6.3972   21.9926 O.3     1  lig        -0.4913
@<TRIPOS>BOND
     1     1    12    1
     2     2    13    1
     3     3    14    1
     4     4    15    1
     5     5    19    1
     6     6    19    1
     7     7    20    1
     8     8    21    1
     9     9    21    1
    10    10    21    1
    11    11    24    1
    12    12    14   ar
    13    12    16   ar
    14    13    15   ar
    15    13    16   ar
    16    14    17   ar
    17    15    17   ar
    18    16    19    1
    19    17    24    1
    20    18    20    1
    21    18    22    1
    22    18    23    1
    23    19    20    1
    24    20    21    1
@<TRIPOS>SUBSTRUCTURE
     1 lig         1 TEMP              0 ****  ****    0 ROOT


########## Name:		ligand
########## HA_RMSDs:		13.0216
########## HA_RMSDh:		13.0023
########## HA_RMSDm:		11.4200
########## Cluster Size:	2
##########    Grid Score:          -25.532333
##########      Grid_vdw:          -19.332350
##########       Grid_es:           -6.199984
##########    Int_energy:            2.961145

@<TRIPOS>MOLECULE
ligand
 24 24 1 0 0
SMALL
No Charge or Current Charge


@<TRIPOS>ATOM
      1 H1         11.5102    9.1290   23.1209 H       1  lig         0.1340
      2 H2          7.2677    8.9781   22.6803 H       1  lig         0.1340
      3 H3         11.2631   11.1540   24.4577 H       1  lig         0.1475
      4 H4          7.0143   11.0507   23.9876 H       1  lig         0.1475
      5 H5         10.5584    7.2726   22.1608 H       1  lig         0.0877
      6 H6          8.8766    6.8899   22.3497 H       1  lig         0.0877
      7 H7          9.9443    7.0893   19.9285 H       1  lig         0.0966
      8 H8         10.7660    9.3633   20.3038 H       1  lig         0.4431
      9 H9          9.6279    9.3998   19.0969 H       1  lig         0.4431
     10 H10         9.2179    9.8922   20.6344 H       1  lig         0.4431
     11 H11         8.1629   12.6405   24.9767 H       1  lig         0.4214
     12 C1         10.5207    9.5427   23.2979 C.ar    1  lig        -0.0999
     13 C2          8.1529    9.4742   23.0715 C.ar    1  lig        -0.0999
     14 C3         10.3788   10.6751   24.0517 C.ar    1  lig        -0.1787
     15 C4          8.0008   10.6398   23.7978 C.ar    1  lig        -0.1787
     16 C5          9.4070    8.9403   22.7985 C.ar    1  lig        -0.1394
     17 C6          9.1549   11.2461   24.2800 C.ar    1  lig         0.1292
     18 C7          7.9007    7.5733   20.1197 C.2     1  lig         0.9321
     19 C8          9.5529    7.6707   21.9812 C.3     1  lig        -0.0452
     20 C9          9.3489    7.8233   20.4735 C.3     1  lig        -0.0740
     21 N1          9.7698    9.1737   20.1023 N.4     1  lig        -0.8252
     22 O1          7.5379    6.4053   20.2418 O.co2   1  lig        -0.7573
     23 O2          7.1206    8.4752   19.6992 O.co2   1  lig        -0.7573
     24 O3          9.1004   12.2913   25.0052 O.3     1  lig        -0.4913
@<TRIPOS>BOND
     1     1    12    1
     2     2    13    1
     3     3    14    1
     4     4    15    1
     5     5    19    1
     6     6    19    1
     7     7    20    1
     8     8    21    1
     9     9    21    1
    10    10    21    1
    11    11    24    1
    12    12    14   ar
    13    12    16   ar
    14    13    15   ar
    15    13    16   ar
    16    14    17   ar
    17    15    17   ar
    18    16    19    1
    19    17    24    1
    20    18    20    1
    21    18    22    1
    22    18    23    1
    23    19    20    1
    24    20    21    1
@<TRIPOS>SUBSTRUCTURE
     1 lig         1 TEMP              0 ****  ****    0 ROOT


########## Name:		ligand
########## HA_RMSDs:		12.5982
########## HA_RMSDh:		12.5731
########## HA_RMSDm:		11.0231
########## Cluster Size:	1
##########    Grid Score:          -25.464167
##########      Grid_vdw:          -20.094225
##########       Grid_es:           -5.369942
##########    Int_energy:            2.490671

@<TRIPOS>MOLECULE
ligand
 24 24 1 0 0
SMALL
No Charge or Current Charge


@<TRIPOS>ATOM
      1 H1          7.8224    9.7531   23.1361 H       1  lig         0.1340
      2 H2         11.9120    8.8096   22.3614 H       1  lig         0.1340
      3 H3          8.5229   11.9297   23.9850 H       1  lig         0.1475
      4 H4         12.6307   10.9864   23.2636 H       1  lig         0.1475
      5 H5         10.1453    7.0510   22.4756 H       1  lig         0.0877
      6 H6          8.4665    7.4526   22.6513 H       1  lig         0.0877
      7 H7          9.9210    7.0000   20.2213 H       1  lig         0.0966
      8 H8         10.4183    9.3946   20.2950 H       1  lig         0.4431
      9 H9          9.3223    9.1147   19.0811 H       1  lig         0.4431
     10 H10         8.8039    9.7455   20.5330 H       1  lig         0.4431
     11 H11        10.8191   12.7299   25.1450 H       1  lig         0.4214
     12 C1          8.8787   10.0081   23.1643 C.ar    1  lig        -0.0999
     13 C2         11.1647    9.5062   22.7339 C.ar    1  lig        -0.0999
     14 C3          9.2740   11.2300   23.6348 C.ar    1  lig        -0.1787
     15 C4         11.5782   10.7219   23.2441 C.ar    1  lig        -0.1787
     16 C5          9.8245    9.1372   22.7172 C.ar    1  lig        -0.1394
     17 C6         10.5946   11.5851   23.7123 C.ar    1  lig         0.1292
     18 C7          7.8261    7.2203   20.3214 C.2     1  lig         0.9321
     19 C8          9.3937    7.7890   22.1717 C.3     1  lig        -0.0452
     20 C9          9.2163    7.7111   20.6550 C.3     1  lig        -0.0740
     21 N1          9.4630    9.0453   20.1095 N.4     1  lig        -0.8252
     22 O1          7.0294    8.1056   20.0183 O.co2   1  lig        -0.7573
     23 O2          7.4849    6.0040   20.3764 O.co2   1  lig        -0.7573
     24 O3         10.8846   12.7465   24.1465 O.3     1  lig        -0.4913
@<TRIPOS>BOND
     1     1    12    1
     2     2    13    1
     3     3    14    1
     4     4    15    1
     5     5    19    1
     6     6    19    1
     7     7    20    1
     8     8    21    1
     9     9    21    1
    10    10    21    1
    11    11    24    1
    12    12    14   ar
    13    12    16   ar
    14    13    15   ar
    15    13    16   ar
    16    14    17   ar
    17    15    17   ar
    18    16    19    1
    19    17    24    1
    20    18    20    1
    21    18    22    1
    22    18    23    1
    23    19    20    1
    24    20    21    1
@<TRIPOS>SUBSTRUCTURE
     1 lig         1 TEMP              0 ****  ****    0 ROOT


########## Name:		ligand
########## HA_RMSDs:		12.1144
########## HA_RMSDh:		12.0638
########## HA_RMSDm:		10.5519
########## Cluster Size:	1
##########    Grid Score:          -25.261080
##########      Grid_vdw:          -19.790077
##########       Grid_es:           -5.471003
##########    Int_energy:            3.711564

@<TRIPOS>MOLECULE
ligand
 24 24 1 0 0
SMALL
No Charge or Current Charge


@<TRIPOS>ATOM
      1 H1          8.3378    9.8947   23.1335 H       1  lig         0.1340
      2 H2         12.4995    9.2662   22.4255 H       1  lig         0.1340
      3 H3          8.8850   11.9721   24.2884 H       1  lig         0.1475
      4 H4         13.0627   11.3378   23.6340 H       1  lig         0.1475
      5 H5         10.8941    7.4681   22.1220 H       1  lig         0.0877
      6 H6          9.2028    7.6452   22.4667 H       1  lig         0.0877
      7 H7         10.4955    7.7500   19.9093 H       1  lig         0.0966
      8 H8         10.7574   10.1426   20.3493 H       1  lig         0.4431
      9 H9          9.6011    9.9395   19.1768 H       1  lig         0.4431
     10 H10         9.1404   10.2702   20.7429 H       1  lig         0.4431
     11 H11        11.7612   12.6959   25.4615 H       1  lig         0.4214
     12 C1          9.3767   10.1959   23.2416 C.ar    1  lig        -0.0999
     13 C2         11.7014    9.8695   22.8518 C.ar    1  lig        -0.0999
     14 C3          9.6861   11.3631   23.8840 C.ar    1  lig        -0.1787
     15 C4         12.0279   11.0262   23.5335 C.ar    1  lig        -0.1787
     16 C5         10.3852    9.4398   22.7277 C.ar    1  lig        -0.1394
     17 C6         10.9813   11.7700   24.0656 C.ar    1  lig         0.1292
     18 C7          8.4039    7.7181   20.1756 C.2     1  lig         0.9321
     19 C8         10.0501    8.1557   21.9930 C.3     1  lig        -0.0452
     20 C9          9.7607    8.3006   20.4986 C.3     1  lig        -0.0740
     21 N1          9.8297    9.7236   20.1684 N.4     1  lig        -0.8252
     22 O1          8.2436    6.5571   20.5459 O.co2   1  lig        -0.7573
     23 O2          7.5064    8.3493   19.5472 O.co2   1  lig        -0.7573
     24 O3         11.1903   12.8768   24.6595 O.3     1  lig        -0.4913
@<TRIPOS>BOND
     1     1    12    1
     2     2    13    1
     3     3    14    1
     4     4    15    1
     5     5    19    1
     6     6    19    1
     7     7    20    1
     8     8    21    1
     9     9    21    1
    10    10    21    1
    11    11    24    1
    12    12    14   ar
    13    12    16   ar
    14    13    15   ar
    15    13    16   ar
    16    14    17   ar
    17    15    17   ar
    18    16    19    1
    19    17    24    1
    20    18    20    1
    21    18    22    1
    22    18    23    1
    23    19    20    1
    24    20    21    1
@<TRIPOS>SUBSTRUCTURE
     1 lig         1 TEMP              0 ****  ****    0 ROOT


########## Name:		ligand
########## HA_RMSDs:		13.1616
########## HA_RMSDh:		13.1229
########## HA_RMSDm:		11.1559
########## Cluster Size:	2
##########    Grid Score:          -25.199940
##########      Grid_vdw:          -18.821453
##########       Grid_es:           -6.378486
##########    Int_energy:            1.214738

@<TRIPOS>MOLECULE
ligand
 24 24 1 0 0
SMALL
No Charge or Current Charge


@<TRIPOS>ATOM
      1 H1         10.3728    7.6264   20.7604 H       1  lig         0.1340
      2 H2          8.8790   10.0983   23.9027 H       1  lig         0.1340
      3 H3         12.1375    9.2621   20.3614 H       1  lig         0.1475
      4 H4         10.6288   11.7782   23.4722 H       1  lig         0.1475
      5 H5          8.7288    6.8013   22.1530 H       1  lig         0.0877
      6 H6          8.3354    7.5311   23.6772 H       1  lig         0.0877
      7 H7          6.9169    9.1866   21.9745 H       1  lig         0.0966
      8 H8          6.1322    8.0152   23.9742 H       1  lig         0.4431
      9 H9          5.0527    7.7495   22.7425 H       1  lig         0.4431
     10 H10         6.1446    6.5611   23.1548 H       1  lig         0.4431
     11 H11        12.4739   11.5673   20.6117 H       1  lig         0.4214
     12 C1         10.4137    8.5341   21.3570 C.ar    1  lig        -0.0999
     13 C2          9.6026    9.9244   23.1097 C.ar    1  lig        -0.0999
     14 C3         11.4054    9.4505   21.1391 C.ar    1  lig        -0.1787
     15 C4         10.5761   10.8757   22.8716 C.ar    1  lig        -0.1787
     16 C5          9.5029    8.7708   22.3405 C.ar    1  lig        -0.1394
     17 C6         11.4819   10.6194   21.8490 C.ar    1  lig         0.1292
     18 C7          6.8252    7.5078   20.7016 C.2     1  lig         0.9321
     19 C8          8.4136    7.7489   22.6051 C.3     1  lig        -0.0452
     20 C9          7.0242    8.1056   22.0756 C.3     1  lig        -0.0740
     21 N1          6.0405    7.5994   23.0320 N.4     1  lig        -0.8252
     22 O1          6.8943    8.3147   19.7771 O.co2   1  lig        -0.7573
     23 O2          6.5747    6.2843   20.5038 O.co2   1  lig        -0.7573
     24 O3         12.4433   11.4165   21.6006 O.3     1  lig        -0.4913
@<TRIPOS>BOND
     1     1    12    1
     2     2    13    1
     3     3    14    1
     4     4    15    1
     5     5    19    1
     6     6    19    1
     7     7    20    1
     8     8    21    1
     9     9    21    1
    10    10    21    1
    11    11    24    1
    12    12    14   ar
    13    12    16   ar
    14    13    15   ar
    15    13    16   ar
    16    14    17   ar
    17    15    17   ar
    18    16    19    1
    19    17    24    1
    20    18    20    1
    21    18    22    1
    22    18    23    1
    23    19    20    1
    24    20    21    1
@<TRIPOS>SUBSTRUCTURE
     1 lig         1 TEMP              0 ****  ****    0 ROOT


########## Name:		ligand
########## HA_RMSDs:		13.6182
########## HA_RMSDh:		13.5552
########## HA_RMSDm:		11.5137
########## Cluster Size:	30
##########    Grid Score:          -25.166271
##########      Grid_vdw:          -20.397821
##########       Grid_es:           -4.768450
##########    Int_energy:            1.267382

@<TRIPOS>MOLECULE
ligand
 24 24 1 0 0
SMALL
No Charge or Current Charge


@<TRIPOS>ATOM
      1 H1          7.2406    8.9810   23.6805 H       1  lig         0.1340
      2 H2         11.0455   10.3002   22.2669 H       1  lig         0.1340
      3 H3          6.7884    8.0399   21.4762 H       1  lig         0.1475
      4 H4         10.5748    9.3958   20.0242 H       1  lig         0.1475
      5 H5          8.9662    9.6471   25.2190 H       1  lig         0.0877
      6 H6         10.5245   10.2163   24.7108 H       1  lig         0.0877
      7 H7          7.9904   11.8838   24.3332 H       1  lig         0.0966
      8 H8          9.9450   12.4454   22.9727 H       1  lig         0.4431
      9 H9          9.7396   13.6234   24.1229 H       1  lig         0.4431
     10 H10        10.9144   12.4611   24.3313 H       1  lig         0.4431
     11 H11         8.7581    8.6778   18.7732 H       1  lig         0.4214
     12 C1          7.9765    9.0843   22.8870 C.ar    1  lig        -0.0999
     13 C2         10.0961    9.8040   22.0797 C.ar    1  lig        -0.0999
     14 C3          7.7278    8.5527   21.6516 C.ar    1  lig        -0.1787
     15 C4          9.8387    9.3060   20.8167 C.ar    1  lig        -0.1787
     16 C5          9.1609    9.7188   23.1047 C.ar    1  lig        -0.1394
     17 C6          8.6142    8.6800   20.6152 C.ar    1  lig         0.1292
     18 C7          8.9792   12.0371   26.1895 C.2     1  lig         0.9321
     19 C8          9.4553   10.2907   24.4784 C.3     1  lig        -0.0452
     20 C9          9.0035   11.7332   24.7090 C.3     1  lig        -0.0740
     21 N1          9.9305   12.6091   23.9934 N.4     1  lig        -0.8252
     22 O1          7.8877   11.8692   26.7290 O.co2   1  lig        -0.7573
     23 O2          9.9832   12.4618   26.8301 O.co2   1  lig        -0.7573
     24 O3          8.3201    8.1445   19.4980 O.3     1  lig        -0.4913
@<TRIPOS>BOND
     1     1    12    1
     2     2    13    1
     3     3    14    1
     4     4    15    1
     5     5    19    1
     6     6    19    1
     7     7    20    1
     8     8    21    1
     9     9    21    1
    10    10    21    1
    11    11    24    1
    12    12    14   ar
    13    12    16   ar
    14    13    15   ar
    15    13    16   ar
    16    14    17   ar
    17    15    17   ar
    18    16    19    1
    19    17    24    1
    20    18    20    1
    21    18    22    1
    22    18    23    1
    23    19    20    1
    24    20    21    1
@<TRIPOS>SUBSTRUCTURE
     1 lig         1 TEMP              0 ****  ****    0 ROOT


########## Name:		ligand
########## HA_RMSDs:		13.4162
########## HA_RMSDh:		13.3513
########## HA_RMSDm:		11.0194
########## Cluster Size:	20
##########    Grid Score:          -25.131931
##########      Grid_vdw:          -20.313805
##########       Grid_es:           -4.818126
##########    Int_energy:            1.023152

@<TRIPOS>MOLECULE
ligand
 24 24 1 0 0
SMALL
No Charge or Current Charge


@<TRIPOS>ATOM
      1 H1         11.2507   10.3206   21.8470 H       1  lig         0.1340
      2 H2          7.5830    9.2430   23.7451 H       1  lig         0.1340
      3 H3         10.4518    9.2774   19.7922 H       1  lig         0.1475
      4 H4          6.7904    8.1439   21.6877 H       1  lig         0.1475
      5 H5          9.7429    9.8096   25.0377 H       1  lig         0.0877
      6 H6         11.0533   10.5848   24.2056 H       1  lig         0.0877
      7 H7          8.3497   11.9375   24.0915 H       1  lig         0.0966
      8 H8         10.3086   12.8002   22.9059 H       1  lig         0.4431
      9 H9          9.9191   13.8521   24.1286 H       1  lig         0.4431
     10 H10        11.1940   12.7976   24.3208 H       1  lig         0.4431
     11 H11         8.7371    8.6018   18.7673 H       1  lig         0.4214
     12 C1         10.2748    9.8420   21.8275 C.ar    1  lig        -0.0999
     13 C2          8.2195    9.2376   22.8634 C.ar    1  lig        -0.0999
     14 C3          9.8221    9.2611   20.6750 C.ar    1  lig        -0.1787
     15 C4          7.7688    8.6128   21.7164 C.ar    1  lig        -0.1787
     16 C5          9.4768    9.8270   22.9301 C.ar    1  lig        -0.1394
     17 C6          8.6107    8.6251   20.6105 C.ar    1  lig         0.1292
     18 C7          9.2126   12.0316   26.0133 C.2     1  lig         0.9321
     19 C8          9.9607   10.4896   24.2059 C.3     1  lig        -0.0452
     20 C9          9.3505   11.8563   24.5183 C.3     1  lig        -0.0740
     21 N1         10.2205   12.8758   23.9333 N.4     1  lig        -0.8252
     22 O1          8.1347   11.6633   26.4750 O.co2   1  lig        -0.7573
     23 O2         10.1111   12.5442   26.7404 O.co2   1  lig        -0.7573
     24 O3          8.2500    8.1216   19.4979 O.3     1  lig        -0.4913
@<TRIPOS>BOND
     1     1    12    1
     2     2    13    1
     3     3    14    1
     4     4    15    1
     5     5    19    1
     6     6    19    1
     7     7    20    1
     8     8    21    1
     9     9    21    1
    10    10    21    1
    11    11    24    1
    12    12    14   ar
    13    12    16   ar
    14    13    15   ar
    15    13    16   ar
    16    14    17   ar
    17    15    17   ar
    18    16    19    1
    19    17    24    1
    20    18    20    1
    21    18    22    1
    22    18    23    1
    23    19    20    1
    24    20    21    1
@<TRIPOS>SUBSTRUCTURE
     1 lig         1 TEMP              0 ****  ****    0 ROOT


########## Name:		ligand
########## HA_RMSDs:		13.1548
########## HA_RMSDh:		13.1301
########## HA_RMSDm:		11.5470
########## Cluster Size:	3
##########    Grid Score:          -25.108868
##########      Grid_vdw:          -20.143188
##########       Grid_es:           -4.965680
##########    Int_energy:            3.281790

@<TRIPOS>MOLECULE
ligand
 24 24 1 0 0
SMALL
No Charge or Current Charge


@<TRIPOS>ATOM
      1 H1          7.4512    7.9936   23.1416 H       1  lig         0.1340
      2 H2         11.2314    9.7993   22.3260 H       1  lig         0.1340
      3 H3          6.7983    9.9991   24.3667 H       1  lig         0.1475
      4 H4         10.5972   11.8076   23.6041 H       1  lig         0.1475
      5 H5         10.8744    7.3870   22.0310 H       1  lig         0.0877
      6 H6          9.3459    6.6247   22.3363 H       1  lig         0.0877
      7 H7          9.8012    6.6188   19.9282 H       1  lig         0.0966
      8 H8         11.2360    8.6007   19.9203 H       1  lig         0.4431
      9 H9         10.0305    8.8107   18.7998 H       1  lig         0.4431
     10 H10         9.9290    9.5760   20.2757 H       1  lig         0.4431
     11 H11         7.5993   11.7121   25.4418 H       1  lig         0.4214
     12 C1          8.1518    8.8189   23.2407 C.ar    1  lig        -0.0999
     13 C2         10.2499    9.8479   22.7917 C.ar    1  lig        -0.0999
     14 C3          7.7863    9.9468   23.9225 C.ar    1  lig        -0.1787
     15 C4          9.9061   10.9758   23.5121 C.ar    1  lig        -0.1787
     16 C5          9.3895    8.7621   22.6771 C.ar    1  lig        -0.1394
     17 C6          8.6442   11.0008   24.0942 C.ar    1  lig         0.1292
     18 C7          7.9931    7.6731   20.1856 C.2     1  lig         0.9321
     19 C8          9.7949    7.5247   21.8990 C.3     1  lig        -0.0452
     20 C9          9.4838    7.5488   20.4021 C.3     1  lig        -0.0740
     21 N1         10.2101    8.6744   19.8153 N.4     1  lig        -0.8252
     22 O1          7.3965    6.6017   20.1028 O.co2   1  lig        -0.7573
     23 O2          7.3967    8.7814   20.0645 O.co2   1  lig        -0.7573
     24 O3          8.2269   12.0238   24.7271 O.3     1  lig        -0.4913
@<TRIPOS>BOND
     1     1    12    1
     2     2    13    1
     3     3    14    1
     4     4    15    1
     5     5    19    1
     6     6    19    1
     7     7    20    1
     8     8    21    1
     9     9    21    1
    10    10    21    1
    11    11    24    1
    12    12    14   ar
    13    12    16   ar
    14    13    15   ar
    15    13    16   ar
    16    14    17   ar
    17    15    17   ar
    18    16    19    1
    19    17    24    1
    20    18    20    1
    21    18    22    1
    22    18    23    1
    23    19    20    1
    24    20    21    1
@<TRIPOS>SUBSTRUCTURE
     1 lig         1 TEMP              0 ****  ****    0 ROOT


########## Name:		ligand
########## HA_RMSDs:		13.6247
########## HA_RMSDh:		13.6055
########## HA_RMSDm:		11.7661
########## Cluster Size:	3
##########    Grid Score:          -24.923744
##########      Grid_vdw:          -19.738462
##########       Grid_es:           -5.185283
##########    Int_energy:            3.094961

@<TRIPOS>MOLECULE
ligand
 24 24 1 0 0
SMALL
No Charge or Current Charge


@<TRIPOS>ATOM
      1 H1         24.6885    5.4688   15.6360 H       1  lig         0.1340
      2 H2         26.1859    8.3107   12.8259 H       1  lig         0.1340
      3 H3         22.4855    5.6675   14.6084 H       1  lig         0.1475
      4 H4         23.9524    8.5537   11.8152 H       1  lig         0.1475
      5 H5         27.0299    5.7474   15.3418 H       1  lig         0.0877
      6 H6         27.7275    6.8169   14.1671 H       1  lig         0.0877
      7 H7         28.2974    7.6287   16.3911 H       1  lig         0.0966
      8 H8         26.4127    6.5814   17.5479 H       1  lig         0.4431
      9 H9         26.4469    8.1943   17.9358 H       1  lig         0.4431
     10 H10        25.3474    7.6371   16.8155 H       1  lig         0.4431
     11 H11        21.2713    6.7117   13.3270 H       1  lig         0.4214
     12 C1         24.5395    6.1525   14.8042 C.ar    1  lig        -0.0999
     13 C2         25.3545    7.7332   13.2230 C.ar    1  lig        -0.0999
     14 C3         23.3065    6.2619   14.2225 C.ar    1  lig        -0.1787
     15 C4         24.1042    7.8814   12.6537 C.ar    1  lig        -0.1787
     16 C5         25.5688    6.8937   14.3102 C.ar    1  lig        -0.1394
     17 C6         23.0661    7.1281   13.1890 C.ar    1  lig         0.1292
     18 C7         27.1661    9.1746   15.5094 C.2     1  lig         0.9321
     19 C8         26.9452    6.7613   14.9337 C.3     1  lig        -0.0452
     20 C9         27.2730    7.7637   16.0409 C.3     1  lig        -0.0740
     21 N1         26.3401    7.5298   17.1426 N.4     1  lig        -0.8252
     22 O1         28.1913    9.6031   14.9840 O.co2   1  lig        -0.7573
     23 O2         26.1242    9.8827   15.6174 O.co2   1  lig        -0.7573
     24 O3         21.8959    7.1627   12.6882 O.3     1  lig        -0.4913
@<TRIPOS>BOND
     1     1    12    1
     2     2    13    1
     3     3    14    1
     4     4    15    1
     5     5    19    1
     6     6    19    1
     7     7    20    1
     8     8    21    1
     9     9    21    1
    10    10    21    1
    11    11    24    1
    12    12    14   ar
    13    12    16   ar
    14    13    15   ar
    15    13    16   ar
    16    14    17   ar
    17    15    17   ar
    18    16    19    1
    19    17    24    1
    20    18    20    1
    21    18    22    1
    22    18    23    1
    23    19    20    1
    24    20    21    1
@<TRIPOS>SUBSTRUCTURE
     1 lig         1 TEMP              0 ****  ****    0 ROOT


########## Name:		ligand
########## HA_RMSDs:		13.9042
########## HA_RMSDh:		13.8853
########## HA_RMSDm:		11.8626
########## Cluster Size:	2
##########    Grid Score:          -24.593779
##########      Grid_vdw:          -17.892687
##########       Grid_es:           -6.701092
##########    Int_energy:            2.069891

@<TRIPOS>MOLECULE
ligand
 24 24 1 0 0
SMALL
No Charge or Current Charge


@<TRIPOS>ATOM
      1 H1         24.6186    5.5994   15.5174 H       1  lig         0.1340
      2 H2         25.9095    8.1027   12.3107 H       1  lig         0.1340
      3 H3         22.3623    5.6390   14.5920 H       1  lig         0.1475
      4 H4         23.6227    8.1878   11.3984 H       1  lig         0.1475
      5 H5         26.7453    6.4835   15.5835 H       1  lig         0.0877
      6 H6         27.4122    6.0713   14.0357 H       1  lig         0.0877
      7 H7         27.2504    8.7667   13.6717 H       1  lig         0.0966
      8 H8         29.2324    7.3383   13.5375 H       1  lig         0.4431
      9 H9         29.6087    8.6908   14.4219 H       1  lig         0.4431
     10 H10        29.3093    7.2501   15.2024 H       1  lig         0.4431
     11 H11        21.0644    6.4899   13.2562 H       1  lig         0.4214
     12 C1         24.4127    6.1752   14.6186 C.ar    1  lig        -0.0999
     13 C2         25.1120    7.5650   12.8180 C.ar    1  lig        -0.0999
     14 C3         23.1496    6.1947   14.0944 C.ar    1  lig        -0.1787
     15 C4         23.8314    7.6243   12.3023 C.ar    1  lig        -0.1787
     16 C5         25.3994    6.8666   13.9851 C.ar    1  lig        -0.1394
     17 C6         22.8383    6.9257   12.9787 C.ar    1  lig         0.1292
     18 C7         27.2689    8.9499   15.7724 C.2     1  lig         0.9321
     19 C8         26.8083    6.8315   14.5459 C.3     1  lig        -0.0452
     20 C9         27.5678    8.1583   14.5199 C.3     1  lig        -0.0740
     21 N1         28.9930    7.8526   14.4018 N.4     1  lig        -0.8252
     22 O1         26.7443   10.0436   15.5742 O.co2   1  lig        -0.7573
     23 O2         27.5584    8.5484   16.9359 O.co2   1  lig        -0.7573
     24 O3         21.6437    6.8817   12.5402 O.3     1  lig        -0.4913
@<TRIPOS>BOND
     1     1    12    1
     2     2    13    1
     3     3    14    1
     4     4    15    1
     5     5    19    1
     6     6    19    1
     7     7    20    1
     8     8    21    1
     9     9    21    1
    10    10    21    1
    11    11    24    1
    12    12    14   ar
    13    12    16   ar
    14    13    15   ar
    15    13    16   ar
    16    14    17   ar
    17    15    17   ar
    18    16    19    1
    19    17    24    1
    20    18    20    1
    21    18    22    1
    22    18    23    1
    23    19    20    1
    24    20    21    1
@<TRIPOS>SUBSTRUCTURE
     1 lig         1 TEMP              0 ****  ****    0 ROOT


########## Name:		ligand
########## HA_RMSDs:		13.4291
########## HA_RMSDh:		13.3635
########## HA_RMSDm:		10.9680
########## Cluster Size:	1
##########    Grid Score:          -24.256645
##########      Grid_vdw:          -19.174419
##########       Grid_es:           -5.082227
##########    Int_energy:            1.152478

@<TRIPOS>MOLECULE
ligand
 24 24 1 0 0
SMALL
No Charge or Current Charge


@<TRIPOS>ATOM
      1 H1         24.8734    9.3376   13.8765 H       1  lig         0.1340
      2 H2         25.9282    5.2579   14.5544 H       1  lig         0.1340
      3 H3         26.2726    9.9762   15.7695 H       1  lig         0.1475
      4 H4         27.3033    5.8907   16.4980 H       1  lig         0.1475
      5 H5         24.6851    7.5288   12.0949 H       1  lig         0.0877
      6 H6         24.7203    5.8582   12.5623 H       1  lig         0.0877
      7 H7         22.6159    7.8654   13.5190 H       1  lig         0.0966
      8 H8         23.0645    6.0173   15.0585 H       1  lig         0.4431
      9 H9         21.5900    5.7669   14.3399 H       1  lig         0.4431
     10 H10        22.9211    4.9154   13.8131 H       1  lig         0.4431
     11 H11        28.1076    7.6301   17.5591 H       1  lig         0.4214
     12 C1         25.3950    8.5724   14.4459 C.ar    1  lig        -0.0999
     13 C2         26.0024    6.3052   14.8376 C.ar    1  lig        -0.0999
     14 C3         26.1847    8.9282   15.5045 C.ar    1  lig        -0.1787
     15 C4         26.7708    6.6494   15.9333 C.ar    1  lig        -0.1787
     16 C5         25.2954    7.2567   14.1116 C.ar    1  lig        -0.1394
     17 C6         26.8404    7.9972   16.2656 C.ar    1  lig         0.1292
     18 C7         22.2045    6.6474   11.8474 C.2     1  lig         0.9321
     19 C8         24.4408    6.8550   12.9245 C.3     1  lig        -0.0452
     20 C9         22.9291    6.8869   13.1521 C.3     1  lig        -0.0740
     21 N1         22.6073    5.8619   14.1443 N.4     1  lig        -0.8252
     22 O1         21.8837    7.6694   11.2446 O.co2   1  lig        -0.7573
     23 O2         21.9148    5.4960   11.4125 O.co2   1  lig        -0.7573
     24 O3         27.5703    8.4058   17.2257 O.3     1  lig        -0.4913
@<TRIPOS>BOND
     1     1    12    1
     2     2    13    1
     3     3    14    1
     4     4    15    1
     5     5    19    1
     6     6    19    1
     7     7    20    1
     8     8    21    1
     9     9    21    1
    10    10    21    1
    11    11    24    1
    12    12    14   ar
    13    12    16   ar
    14    13    15   ar
    15    13    16   ar
    16    14    17   ar
    17    15    17   ar
    18    16    19    1
    19    17    24    1
    20    18    20    1
    21    18    22    1
    22    18    23    1
    23    19    20    1
    24    20    21    1
@<TRIPOS>SUBSTRUCTURE
     1 lig         1 TEMP              0 ****  ****    0 ROOT


########## Name:		ligand
########## HA_RMSDs:		13.4055
########## HA_RMSDh:		13.3753
########## HA_RMSDm:		11.3642
########## Cluster Size:	1
##########    Grid Score:          -23.969561
##########      Grid_vdw:          -18.970844
##########       Grid_es:           -4.998716
##########    Int_energy:            1.449648

@<TRIPOS>MOLECULE
ligand
 24 24 1 0 0
SMALL
No Charge or Current Charge


@<TRIPOS>ATOM
      1 H1         25.6223    5.2317   15.3200 H       1  lig         0.1340
      2 H2         24.9243    9.0805   13.6127 H       1  lig         0.1340
      3 H3         26.8430    6.3007   17.1409 H       1  lig         0.1475
      4 H4         26.1986   10.1627   15.4222 H       1  lig         0.1475
      5 H5         24.6303    7.0039   12.3012 H       1  lig         0.0877
      6 H6         24.8385    5.4297   13.0006 H       1  lig         0.0877
      7 H7         22.5105    7.2894   13.7011 H       1  lig         0.0966
      8 H8         23.1173    5.6348   15.3984 H       1  lig         0.4431
      9 H9         21.6912    5.1716   14.6879 H       1  lig         0.4431
     10 H10        23.1135    4.4229   14.2507 H       1  lig         0.4431
     11 H11        26.9456    8.2893   18.2076 H       1  lig         0.4214
     12 C1         25.7466    6.3116   15.3270 C.ar    1  lig        -0.0999
     13 C2         25.3631    8.4681   14.3969 C.ar    1  lig        -0.0999
     14 C3         26.4259    6.9142   16.3498 C.ar    1  lig        -0.1787
     15 C4         26.0816    9.0838   15.4038 C.ar    1  lig        -0.1787
     16 C5         25.2170    7.0868   14.3414 C.ar    1  lig        -0.1394
     17 C6         26.6287    8.2683   16.3875 C.ar    1  lig         0.1292
     18 C7         22.2607    5.8984   12.1359 C.2     1  lig         0.9321
     19 C8         24.4416    6.4293   13.2156 C.3     1  lig        -0.0452
     20 C9         22.9306    6.3216   13.4231 C.3     1  lig        -0.0740
     21 N1         22.6969    5.3558   14.4960 N.4     1  lig        -0.8252
     22 O1         21.9046    6.8275   11.4143 O.co2   1  lig        -0.7573
     23 O2         22.0466    4.6914   11.8260 O.co2   1  lig        -0.7573
     24 O3         27.2571    8.7587   17.3804 O.3     1  lig        -0.4913
@<TRIPOS>BOND
     1     1    12    1
     2     2    13    1
     3     3    14    1
     4     4    15    1
     5     5    19    1
     6     6    19    1
     7     7    20    1
     8     8    21    1
     9     9    21    1
    10    10    21    1
    11    11    24    1
    12    12    14   ar
    13    12    16   ar
    14    13    15   ar
    15    13    16   ar
    16    14    17   ar
    17    15    17   ar
    18    16    19    1
    19    17    24    1
    20    18    20    1
    21    18    22    1
    22    18    23    1
    23    19    20    1
    24    20    21    1
@<TRIPOS>SUBSTRUCTURE
     1 lig         1 TEMP              0 ****  ****    0 ROOT


########## Name:		ligand
########## HA_RMSDs:		13.2083
########## HA_RMSDh:		13.2081
########## HA_RMSDm:		11.0331
########## Cluster Size:	3
##########    Grid Score:          -23.875189
##########      Grid_vdw:          -17.906111
##########       Grid_es:           -5.969079
##########    Int_energy:            1.380093

@<TRIPOS>MOLECULE
ligand
 24 24 1 0 0
SMALL
No Charge or Current Charge


@<TRIPOS>ATOM
      1 H1          9.4449    9.8065   24.1026 H       1  lig         0.1340
      2 H2         10.2924    7.9521   20.3531 H       1  lig         0.1340
      3 H3         11.3111   11.3318   23.7290 H       1  lig         0.1475
      4 H4         12.2094    9.4569   19.9925 H       1  lig         0.1475
      5 H5          8.7569    6.9464   21.8522 H       1  lig         0.0877
      6 H6          8.5937    7.4423   23.5069 H       1  lig         0.0877
      7 H7          7.2835    9.1880   21.4146 H       1  lig         0.0966
      8 H8          7.2560    9.7308   23.8003 H       1  lig         0.4431
      9 H9          5.7141    9.3461   23.3231 H       1  lig         0.4431
     10 H10         6.6238    8.2280   24.1579 H       1  lig         0.4431
     11 H11        12.8167   11.6541   20.7955 H       1  lig         0.4214
     12 C1         10.0460    9.7151   23.2015 C.ar    1  lig        -0.0999
     13 C2         10.5320    8.7010   21.1043 C.ar    1  lig        -0.0999
     14 C3         11.0897   10.5727   22.9869 C.ar    1  lig        -0.1787
     15 C4         11.6132    9.5359   20.8960 C.ar    1  lig        -0.1787
     16 C5          9.7664    8.7701   22.2626 C.ar    1  lig        -0.1394
     17 C6         11.8894   10.4792   21.8788 C.ar    1  lig         0.1292
     18 C7          6.3161    7.3250   21.6148 C.2     1  lig         0.9321
     19 C8          8.5962    7.8300   22.4810 C.3     1  lig        -0.0452
     20 C9          7.2139    8.4058   22.1720 C.3     1  lig        -0.0740
     21 N1          6.6784    8.9661   23.4121 N.4     1  lig        -0.8252
     22 O1          6.4327    7.1349   20.4061 O.co2   1  lig        -0.7573
     23 O2          5.4833    6.6812   22.3155 O.co2   1  lig        -0.7573
     24 O3         12.8324   11.3235   21.7401 O.3     1  lig        -0.4913
@<TRIPOS>BOND
     1     1    12    1
     2     2    13    1
     3     3    14    1
     4     4    15    1
     5     5    19    1
     6     6    19    1
     7     7    20    1
     8     8    21    1
     9     9    21    1
    10    10    21    1
    11    11    24    1
    12    12    14   ar
    13    12    16   ar
    14    13    15   ar
    15    13    16   ar
    16    14    17   ar
    17    15    17   ar
    18    16    19    1
    19    17    24    1
    20    18    20    1
    21    18    22    1
    22    18    23    1
    23    19    20    1
    24    20    21    1
@<TRIPOS>SUBSTRUCTURE
     1 lig         1 TEMP              0 ****  ****    0 ROOT


########## Name:		ligand
########## HA_RMSDs:		13.2741
########## HA_RMSDh:		13.2646
########## HA_RMSDm:		11.4401
########## Cluster Size:	2
##########    Grid Score:          -23.859184
##########      Grid_vdw:          -21.522097
##########       Grid_es:           -2.337087
##########    Int_energy:            4.465280

@<TRIPOS>MOLECULE
ligand
 24 24 1 0 0
SMALL
No Charge or Current Charge


@<TRIPOS>ATOM
      1 H1         11.2509    9.7926   21.3862 H       1  lig         0.1340
      2 H2          7.5164    8.3932   22.9063 H       1  lig         0.1340
      3 H3         11.0470   11.7668   22.8039 H       1  lig         0.1475
      4 H4          7.2800   10.4085   24.3034 H       1  lig         0.1475
      5 H5         10.4841    7.7939   20.6630 H       1  lig         0.0877
      6 H6          9.5770    6.8392   21.7928 H       1  lig         0.0877
      7 H7          8.8278    7.0949   19.2221 H       1  lig         0.0966
      8 H8          8.5558    9.5184   19.4205 H       1  lig         0.4431
      9 H9          7.0695    8.8361   19.1409 H       1  lig         0.4431
     10 H10         7.4811    9.3172   20.6816 H       1  lig         0.4431
     11 H11         9.5572   13.0255   23.8242 H       1  lig         0.4214
     12 C1         10.3734    9.9182   22.0154 C.ar    1  lig        -0.0999
     13 C2          8.2932    9.1538   22.8821 C.ar    1  lig        -0.0999
     14 C3         10.2591   11.0216   22.8155 C.ar    1  lig        -0.1787
     15 C4          8.1483   10.2837   23.6642 C.ar    1  lig        -0.1787
     16 C5          9.3862    8.9814   22.0407 C.ar    1  lig        -0.1394
     17 C6          9.1606   11.2342   23.6056 C.ar    1  lig         0.1292
     18 C7          7.3621    6.6038   20.6564 C.2     1  lig         0.9321
     19 C8          9.5157    7.7429   21.1744 C.3     1  lig        -0.0452
     20 C9          8.4190    7.5460   20.1274 C.3     1  lig        -0.0740
     21 N1          7.8616    8.8614   19.8147 N.4     1  lig        -0.8252
     22 O1          7.7808    5.4949   20.9813 O.co2   1  lig        -0.7573
     23 O2          6.1365    6.9047   20.7344 O.co2   1  lig        -0.7573
     24 O3          9.1329   12.2771   24.3356 O.3     1  lig        -0.4913
@<TRIPOS>BOND
     1     1    12    1
     2     2    13    1
     3     3    14    1
     4     4    15    1
     5     5    19    1
     6     6    19    1
     7     7    20    1
     8     8    21    1
     9     9    21    1
    10    10    21    1
    11    11    24    1
    12    12    14   ar
    13    12    16   ar
    14    13    15   ar
    15    13    16   ar
    16    14    17   ar
    17    15    17   ar
    18    16    19    1
    19    17    24    1
    20    18    20    1
    21    18    22    1
    22    18    23    1
    23    19    20    1
    24    20    21    1
@<TRIPOS>SUBSTRUCTURE
     1 lig         1 TEMP              0 ****  ****    0 ROOT


########## Name:		ligand
########## HA_RMSDs:		12.8549
########## HA_RMSDh:		12.8049
########## HA_RMSDm:		11.2136
########## Cluster Size:	7
##########    Grid Score:          -23.808861
##########      Grid_vdw:          -19.003565
##########       Grid_es:           -4.805297
##########    Int_energy:            3.232383

@<TRIPOS>MOLECULE
ligand
 24 24 1 0 0
SMALL
No Charge or Current Charge


@<TRIPOS>ATOM
      1 H1          7.8732    8.8259   23.9222 H       1  lig         0.1340
      2 H2         11.3839   10.3321   22.0190 H       1  lig         0.1340
      3 H3          7.0634    8.0701   21.7493 H       1  lig         0.1475
      4 H4         10.5492    9.6159   19.8146 H       1  lig         0.1475
      5 H5          9.8184    9.3957   25.2075 H       1  lig         0.0877
      6 H6         11.2772   10.0168   24.5027 H       1  lig         0.0877
      7 H7          9.4494   11.5293   25.9130 H       1  lig         0.0966
      8 H8          7.8559   11.3571   24.0643 H       1  lig         0.4431
      9 H9          8.3807   12.9275   24.1714 H       1  lig         0.4431
     10 H10         9.0022   11.9271   22.9934 H       1  lig         0.4431
     11 H11         8.7119    8.8388   18.8097 H       1  lig         0.4214
     12 C1          8.4660    9.0108   23.0299 C.ar    1  lig        -0.0999
     13 C2         10.4185    9.8365   21.9489 C.ar    1  lig        -0.0999
     14 C3          8.0168    8.5832   21.8109 C.ar    1  lig        -0.1787
     15 C4          9.9560    9.4445   20.7072 C.ar    1  lig        -0.1787
     16 C5          9.6677    9.6460   23.1032 C.ar    1  lig        -0.1394
     17 C6          8.7175    8.8157   20.6571 C.ar    1  lig         0.1292
     18 C7         10.9795   12.4403   24.7835 C.2     1  lig         0.9321
     19 C8         10.1849   10.1027   24.4541 C.3     1  lig        -0.0452
     20 C9          9.7859   11.5174   24.8753 C.3     1  lig        -0.0740
     21 N1          8.6988   11.9521   23.9990 N.4     1  lig        -0.8252
     22 O1         11.4346   12.5778   23.6501 O.co2   1  lig        -0.7573
     23 O2         11.5005   13.0073   25.7864 O.co2   1  lig        -0.7573
     24 O3          8.2432    8.3731   19.5615 O.3     1  lig        -0.4913
@<TRIPOS>BOND
     1     1    12    1
     2     2    13    1
     3     3    14    1
     4     4    15    1
     5     5    19    1
     6     6    19    1
     7     7    20    1
     8     8    21    1
     9     9    21    1
    10    10    21    1
    11    11    24    1
    12    12    14   ar
    13    12    16   ar
    14    13    15   ar
    15    13    16   ar
    16    14    17   ar
    17    15    17   ar
    18    16    19    1
    19    17    24    1
    20    18    20    1
    21    18    22    1
    22    18    23    1
    23    19    20    1
    24    20    21    1
@<TRIPOS>SUBSTRUCTURE
     1 lig         1 TEMP              0 ****  ****    0 ROOT


########## Name:		ligand
########## HA_RMSDs:		14.1290
########## HA_RMSDh:		14.0464
########## HA_RMSDm:		11.5780
########## Cluster Size:	3
##########    Grid Score:          -23.674875
##########      Grid_vdw:          -21.524902
##########       Grid_es:           -2.149973
##########    Int_energy:            2.990070

@<TRIPOS>MOLECULE
ligand
 24 24 1 0 0
SMALL
No Charge or Current Charge


@<TRIPOS>ATOM
      1 H1         22.8369    8.4842   13.1222 H       1  lig         0.1340
      2 H2         25.9338    5.5474   13.1123 H       1  lig         0.1340
      3 H3         21.3051    6.8196   12.2102 H       1  lig         0.1475
      4 H4         24.4051    3.8753   12.1445 H       1  lig         0.1475
      5 H5         26.1755    8.4002   12.9634 H       1  lig         0.0877
      6 H6         24.9194    9.0973   13.9365 H       1  lig         0.0877
      7 H7         26.9247    6.9591   14.7724 H       1  lig         0.0966
      8 H8         24.6924    6.3608   15.5759 H       1  lig         0.4431
      9 H9         25.5915    6.9090   16.8581 H       1  lig         0.4431
     10 H10        24.4609    7.9093   16.1542 H       1  lig         0.4431
     11 H11        21.0102    4.9284   11.5691 H       1  lig         0.4214
     12 C1         23.1947    7.4805   12.9069 C.ar    1  lig        -0.0999
     13 C2         24.9042    5.8252   12.8993 C.ar    1  lig        -0.0999
     14 C3         22.3365    6.5436   12.4005 C.ar    1  lig        -0.1787
     15 C4         24.0563    4.8823   12.3504 C.ar    1  lig        -0.1787
     16 C5         24.4858    7.1264   13.1527 C.ar    1  lig        -0.1394
     17 C6         22.7485    5.2746   12.0906 C.ar    1  lig         0.1292
     18 C7         26.9246    8.9034   15.5889 C.2     1  lig         0.9321
     19 C8         25.4387    8.1522   13.7364 C.3     1  lig        -0.0452
     20 C9         26.1821    7.7247   15.0023 C.3     1  lig        -0.0740
     21 N1         25.1945    7.1888   15.9383 N.4     1  lig        -0.8252
     22 O1         27.2468    9.7637   14.7725 O.co2   1  lig        -0.7573
     23 O2         27.2267    8.9971   16.8132 O.co2   1  lig        -0.7573
     24 O3         21.8880    4.4526   11.6377 O.3     1  lig        -0.4913
@<TRIPOS>BOND
     1     1    12    1
     2     2    13    1
     3     3    14    1
     4     4    15    1
     5     5    19    1
     6     6    19    1
     7     7    20    1
     8     8    21    1
     9     9    21    1
    10    10    21    1
    11    11    24    1
    12    12    14   ar
    13    12    16   ar
    14    13    15   ar
    15    13    16   ar
    16    14    17   ar
    17    15    17   ar
    18    16    19    1
    19    17    24    1
    20    18    20    1
    21    18    22    1
    22    18    23    1
    23    19    20    1
    24    20    21    1
@<TRIPOS>SUBSTRUCTURE
     1 lig         1 TEMP              0 ****  ****    0 ROOT


########## Name:		ligand
########## HA_RMSDs:		13.6839
########## HA_RMSDh:		13.5930
########## HA_RMSDm:		11.0673
########## Cluster Size:	7
##########    Grid Score:          -23.625839
##########      Grid_vdw:          -19.551693
##########       Grid_es:           -4.074147
##########    Int_energy:            3.654795

@<TRIPOS>MOLECULE
ligand
 24 24 1 0 0
SMALL
No Charge or Current Charge


@<TRIPOS>ATOM
      1 H1          8.4914    9.7548   19.7845 H       1  lig         0.1340
      2 H2         10.3047    6.6133   22.0337 H       1  lig         0.1340
      3 H3          6.4265    8.4589   19.7077 H       1  lig         0.1475
      4 H4          8.2380    5.2776   21.9171 H       1  lig         0.1475
      5 H5         11.5824    8.4344   21.4245 H       1  lig         0.0877
      6 H6         11.1982    9.2706   19.9536 H       1  lig         0.0877
      7 H7          9.9571   11.0257   21.3096 H       1  lig         0.0966
      8 H8         12.3028   11.2650   20.6557 H       1  lig         0.4431
      9 H9         12.0980   11.9323   22.1610 H       1  lig         0.4431
     10 H10        12.7902   10.4245   22.0129 H       1  lig         0.4431
     11 H11         6.2047    5.2812   21.1133 H       1  lig         0.4214
     12 C1          8.4513    8.7733   20.2500 C.ar    1  lig        -0.0999
     13 C2          9.4397    7.0127   21.5094 C.ar    1  lig        -0.0999
     14 C3          7.2930    8.0468   20.2132 C.ar    1  lig        -0.1787
     15 C4          8.2873    6.2531   21.4438 C.ar    1  lig        -0.1787
     16 C5          9.5331    8.2556   20.8938 C.ar    1  lig        -0.1394
     17 C6          7.2033    6.7959   20.7640 C.ar    1  lig         0.1292
     18 C7         10.3525   10.1157   23.1704 C.2     1  lig         0.9321
     19 C8         10.8147    9.0643   20.9602 C.3     1  lig        -0.0452
     20 C9         10.7304   10.3820   21.7313 C.3     1  lig        -0.0740
     21 N1         12.0317   11.0414   21.6281 N.4     1  lig        -0.8252
     22 O1         10.7682    9.0503   23.6204 O.co2   1  lig        -0.7573
     23 O2          9.6394   10.8999   23.8599 O.co2   1  lig        -0.7573
     24 O3          6.0867    6.1870   20.7043 O.3     1  lig        -0.4913
@<TRIPOS>BOND
     1     1    12    1
     2     2    13    1
     3     3    14    1
     4     4    15    1
     5     5    19    1
     6     6    19    1
     7     7    20    1
     8     8    21    1
     9     9    21    1
    10    10    21    1
    11    11    24    1
    12    12    14   ar
    13    12    16   ar
    14    13    15   ar
    15    13    16   ar
    16    14    17   ar
    17    15    17   ar
    18    16    19    1
    19    17    24    1
    20    18    20    1
    21    18    22    1
    22    18    23    1
    23    19    20    1
    24    20    21    1
@<TRIPOS>SUBSTRUCTURE
     1 lig         1 TEMP              0 ****  ****    0 ROOT


########## Name:		ligand
########## HA_RMSDs:		14.1047
########## HA_RMSDh:		14.0470
########## HA_RMSDm:		11.8017
########## Cluster Size:	3
##########    Grid Score:          -23.578653
##########      Grid_vdw:          -19.602659
##########       Grid_es:           -3.975994
##########    Int_energy:            3.346357

@<TRIPOS>MOLECULE
ligand
 24 24 1 0 0
SMALL
No Charge or Current Charge


@<TRIPOS>ATOM
      1 H1         26.0073    5.6946   12.6243 H       1  lig         0.1340
      2 H2         23.1166    8.7366   13.4027 H       1  lig         0.1340
      3 H3         24.2198    4.2599   11.7904 H       1  lig         0.1475
      4 H4         21.2998    7.2746   12.6084 H       1  lig         0.1475
      5 H5         26.5103    8.3133   12.7800 H       1  lig         0.0877
      6 H6         25.4056    9.2141   13.7693 H       1  lig         0.0877
      7 H7         27.0914    6.8195   14.6304 H       1  lig         0.0966
      8 H8         24.8414    6.6824   15.5818 H       1  lig         0.4431
      9 H9         25.8996    7.1327   16.7778 H       1  lig         0.4431
     10 H10        24.9236    8.2782   16.0639 H       1  lig         0.4431
     11 H11        20.8955    5.2991   11.7728 H       1  lig         0.4214
     12 C1         24.9801    6.0504   12.6322 C.ar    1  lig        -0.0999
     13 C2         23.3523    7.7349   13.0512 C.ar    1  lig        -0.0999
     14 C3         23.9765    5.2500   12.1601 C.ar    1  lig        -0.1787
     15 C4         22.3256    6.9201   12.6138 C.ar    1  lig        -0.1787
     16 C5         24.6708    7.2957   13.0864 C.ar    1  lig        -0.1394
     17 C6         22.6654    5.6463   12.1736 C.ar    1  lig         0.1292
     18 C7         27.4855    8.7760   15.3115 C.2     1  lig         0.9321
     19 C8         25.7804    8.1992   13.5899 C.3     1  lig        -0.0452
     20 C9         26.5117    7.7188   14.8439 C.3     1  lig        -0.0740
     21 N1         25.5034    7.4256   15.8617 N.4     1  lig        -0.8252
     22 O1         27.0687    9.9292   15.2281 O.co2   1  lig        -0.7573
     23 O2         28.6508    8.5148   15.7273 O.co2   1  lig        -0.7573
     24 O3         21.7884    4.8525   11.7023 O.3     1  lig        -0.4913
@<TRIPOS>BOND
     1     1    12    1
     2     2    13    1
     3     3    14    1
     4     4    15    1
     5     5    19    1
     6     6    19    1
     7     7    20    1
     8     8    21    1
     9     9    21    1
    10    10    21    1
    11    11    24    1
    12    12    14   ar
    13    12    16   ar
    14    13    15   ar
    15    13    16   ar
    16    14    17   ar
    17    15    17   ar
    18    16    19    1
    19    17    24    1
    20    18    20    1
    21    18    22    1
    22    18    23    1
    23    19    20    1
    24    20    21    1
@<TRIPOS>SUBSTRUCTURE
     1 lig         1 TEMP              0 ****  ****    0 ROOT


########## Name:		ligand
########## HA_RMSDs:		13.1533
########## HA_RMSDh:		13.1136
########## HA_RMSDm:		10.8998
########## Cluster Size:	2
##########    Grid Score:          -23.550299
##########      Grid_vdw:          -19.353374
##########       Grid_es:           -4.196925
##########    Int_energy:            4.812074

@<TRIPOS>MOLECULE
ligand
 24 24 1 0 0
SMALL
No Charge or Current Charge


@<TRIPOS>ATOM
      1 H1          9.2748    7.3939   23.8659 H       1  lig         0.1340
      2 H2          9.6604    9.1881   20.0126 H       1  lig         0.1340
      3 H3          7.1566    6.4139   23.1577 H       1  lig         0.1475
      4 H4          7.4976    8.2424   19.3075 H       1  lig         0.1475
      5 H5         10.8115    9.2965   23.4612 H       1  lig         0.0877
      6 H6         11.6974    8.2002   22.4493 H       1  lig         0.0877
      7 H7         10.5791   10.7572   21.2410 H       1  lig         0.0966
      8 H8         11.5380    9.0110   19.8205 H       1  lig         0.4431
      9 H9         12.5553   10.3217   19.8145 H       1  lig         0.4431
     10 H10        12.9278    8.9909   20.7445 H       1  lig         0.4431
     11 H11         5.9006    5.9984   21.5887 H       1  lig         0.4214
     12 C1          8.8940    7.5928   22.8673 C.ar    1  lig        -0.0999
     13 C2          9.0919    8.5773   20.7100 C.ar    1  lig        -0.0999
     14 C3          7.7091    7.0401   22.4657 C.ar    1  lig        -0.1787
     15 C4          7.8768    8.0569   20.3074 C.ar    1  lig        -0.1787
     16 C5          9.5882    8.3702   21.9918 C.ar    1  lig        -0.1394
     17 C6          7.1784    7.2828   21.2265 C.ar    1  lig         0.1292
     18 C7         12.3046   11.0351   22.4210 C.2     1  lig         0.9321
     19 C8         10.9148    8.9681   22.4204 C.3     1  lig        -0.0452
     20 C9         11.4152   10.1455   21.5830 C.3     1  lig        -0.0740
     21 N1         12.1305    9.5990   20.4304 N.4     1  lig        -0.8252
     22 O1         11.7640   11.5051   23.4197 O.co2   1  lig        -0.7573
     23 O2         13.5005   11.3103   22.1162 O.co2   1  lig        -0.7573
     24 O3          6.0787    6.7199   20.9183 O.3     1  lig        -0.4913
@<TRIPOS>BOND
     1     1    12    1
     2     2    13    1
     3     3    14    1
     4     4    15    1
     5     5    19    1
     6     6    19    1
     7     7    20    1
     8     8    21    1
     9     9    21    1
    10    10    21    1
    11    11    24    1
    12    12    14   ar
    13    12    16   ar
    14    13    15   ar
    15    13    16   ar
    16    14    17   ar
    17    15    17   ar
    18    16    19    1
    19    17    24    1
    20    18    20    1
    21    18    22    1
    22    18    23    1
    23    19    20    1
    24    20    21    1
@<TRIPOS>SUBSTRUCTURE
     1 lig         1 TEMP              0 ****  ****    0 ROOT


########## Name:		ligand
########## HA_RMSDs:		11.6580
########## HA_RMSDh:		11.6067
########## HA_RMSDm:		9.8464
########## Cluster Size:	2
##########    Grid Score:          -23.480373
##########      Grid_vdw:          -19.132147
##########       Grid_es:           -4.348226
##########    Int_energy:            2.221842

@<TRIPOS>MOLECULE
ligand
 24 24 1 0 0
SMALL
No Charge or Current Charge


@<TRIPOS>ATOM
      1 H1         12.1303   10.9207   22.1186 H       1  lig         0.1340
      2 H2          8.2217   10.7546   23.8248 H       1  lig         0.1340
      3 H3         12.8441   12.3248   23.9808 H       1  lig         0.1475
      4 H4          8.9228   12.2133   25.6821 H       1  lig         0.1475
      5 H5          8.7397    9.4033   21.9923 H       1  lig         0.0877
      6 H6          9.4223   10.4815   20.8167 H       1  lig         0.0877
      7 H7         11.3711    8.5769   22.0822 H       1  lig         0.0966
      8 H8         11.9422   10.1471   20.2947 H       1  lig         0.4431
      9 H9         12.0722    8.6006   19.7078 H       1  lig         0.4431
     10 H10        10.7359    9.5192   19.3270 H       1  lig         0.4431
     11 H11        11.0704   12.7061   26.7317 H       1  lig         0.4214
     12 C1         11.4164   11.2015   22.8888 C.ar    1  lig        -0.0999
     13 C2          9.2465   11.1165   23.8619 C.ar    1  lig        -0.0999
     14 C3         11.8154   11.9843   23.9371 C.ar    1  lig        -0.1787
     15 C4          9.6283   11.9396   24.9040 C.ar    1  lig        -0.1787
     16 C5         10.1266   10.7690   22.8435 C.ar    1  lig        -0.1394
     17 C6         10.9453   12.3835   24.9168 C.ar    1  lig         0.1292
     18 C7          9.9304    7.5118   20.9699 C.2     1  lig         0.9321
     19 C8          9.6812    9.8810   21.6972 C.3     1  lig        -0.0452
     20 C9         10.6703    8.7942   21.2748 C.3     1  lig        -0.0740
     21 N1         11.4002    9.2868   20.1072 N.4     1  lig        -0.8252
     22 O1          9.7958    6.7573   21.9307 O.co2   1  lig        -0.7573
     23 O2          9.5063    7.2093   19.8178 O.co2   1  lig        -0.7573
     24 O3         11.3940   13.0988   25.8698 O.3     1  lig        -0.4913
@<TRIPOS>BOND
     1     1    12    1
     2     2    13    1
     3     3    14    1
     4     4    15    1
     5     5    19    1
     6     6    19    1
     7     7    20    1
     8     8    21    1
     9     9    21    1
    10    10    21    1
    11    11    24    1
    12    12    14   ar
    13    12    16   ar
    14    13    15   ar
    15    13    16   ar
    16    14    17   ar
    17    15    17   ar
    18    16    19    1
    19    17    24    1
    20    18    20    1
    21    18    22    1
    22    18    23    1
    23    19    20    1
    24    20    21    1
@<TRIPOS>SUBSTRUCTURE
     1 lig         1 TEMP              0 ****  ****    0 ROOT


########## Name:		ligand
########## HA_RMSDs:		13.8886
########## HA_RMSDh:		13.8743
########## HA_RMSDm:		12.2767
########## Cluster Size:	2
##########    Grid Score:          -23.434361
##########      Grid_vdw:          -18.245872
##########       Grid_es:           -5.188488
##########    Int_energy:            2.843887

@<TRIPOS>MOLECULE
ligand
 24 24 1 0 0
SMALL
No Charge or Current Charge


@<TRIPOS>ATOM
      1 H1         25.7898    4.9856   15.2641 H       1  lig         0.1340
      2 H2         24.4699    8.2155   12.8063 H       1  lig         0.1340
      3 H3         26.7122    6.6064   16.8361 H       1  lig         0.1475
      4 H4         25.4430    9.8568   14.3647 H       1  lig         0.1475
      5 H5         24.7432    5.8336   11.9394 H       1  lig         0.0877
      6 H6         24.9987    4.5226   13.0469 H       1  lig         0.0877
      7 H7         22.4636    6.2378   12.9846 H       1  lig         0.0966
      8 H8         23.0009    5.2374   15.1519 H       1  lig         0.4431
      9 H9         21.7097    4.4276   14.4962 H       1  lig         0.4431
     10 H10        23.2293    3.7483   14.4334 H       1  lig         0.4431
     11 H11        26.2813    8.8368   17.4642 H       1  lig         0.4214
     12 C1         25.7126    6.0490   15.0521 C.ar    1  lig        -0.0999
     13 C2         24.9793    7.8654   13.7010 C.ar    1  lig        -0.0999
     14 C3         26.2242    6.9602   15.9345 C.ar    1  lig        -0.1787
     15 C4         25.5277    8.7935   14.5655 C.ar    1  lig        -0.1787
     16 C5         25.0928    6.4984   13.9267 C.ar    1  lig        -0.1394
     17 C6         26.1722    8.3082   15.6972 C.ar    1  lig         0.1292
     18 C7         22.5116    4.4278   11.9034 C.2     1  lig         0.9321
     19 C8         24.5016    5.4958   12.9540 C.3     1  lig        -0.0452
     20 C9         22.9904    5.2848   13.0528 C.3     1  lig        -0.0740
     21 N1         22.7126    4.6589   14.3450 N.4     1  lig        -0.8252
     22 O1         23.3788    3.7194   11.3967 O.co2   1  lig        -0.7573
     23 O2         21.3259    4.4499   11.4648 O.co2   1  lig        -0.7573
     24 O3         26.6557    9.0960   16.5730 O.3     1  lig        -0.4913
@<TRIPOS>BOND
     1     1    12    1
     2     2    13    1
     3     3    14    1
     4     4    15    1
     5     5    19    1
     6     6    19    1
     7     7    20    1
     8     8    21    1
     9     9    21    1
    10    10    21    1
    11    11    24    1
    12    12    14   ar
    13    12    16   ar
    14    13    15   ar
    15    13    16   ar
    16    14    17   ar
    17    15    17   ar
    18    16    19    1
    19    17    24    1
    20    18    20    1
    21    18    22    1
    22    18    23    1
    23    19    20    1
    24    20    21    1
@<TRIPOS>SUBSTRUCTURE
     1 lig         1 TEMP              0 ****  ****    0 ROOT


########## Name:		ligand
########## HA_RMSDs:		13.4659
########## HA_RMSDh:		13.4035
########## HA_RMSDm:		9.0518
########## Cluster Size:	1
##########    Grid Score:          -23.294500
##########      Grid_vdw:          -22.486643
##########       Grid_es:           -0.807857
##########    Int_energy:            4.136589

@<TRIPOS>MOLECULE
ligand
 24 24 1 0 0
SMALL
No Charge or Current Charge


@<TRIPOS>ATOM
      1 H1         13.5508   15.6337   29.1799 H       1  lig         0.1340
      2 H2         16.3016   18.8917   29.3656 H       1  lig         0.1340
      3 H3         14.4809   15.0192   27.0106 H       1  lig         0.1475
      4 H4         17.2118   18.3065   27.1524 H       1  lig         0.1475
      5 H5         14.8249   18.5824   31.1012 H       1  lig         0.0877
      6 H6         13.2447   18.0113   30.6685 H       1  lig         0.0877
      7 H7         14.6277   15.6455   31.3945 H       1  lig         0.0966
      8 H8         12.3111   16.2763   31.8660 H       1  lig         0.4431
      9 H9         13.0516   15.8614   33.2917 H       1  lig         0.4431
     10 H10        12.8255   17.4681   32.9152 H       1  lig         0.4431
     11 H11        16.9547   16.9210   25.4722 H       1  lig         0.4214
     12 C1         14.3478   16.2310   28.7444 C.ar    1  lig        -0.0999
     13 C2         15.8952   18.0368   28.8302 C.ar    1  lig        -0.0999
     14 C3         14.8750   15.8855   27.5306 C.ar    1  lig        -0.1787
     15 C4         16.4078   17.7206   27.5866 C.ar    1  lig        -0.1787
     16 C5         14.8522   17.3137   29.3973 C.ar    1  lig        -0.1394
     17 C6         15.8623   16.6225   26.9321 C.ar    1  lig         0.1292
     18 C7         15.4898   16.9510   32.8085 C.2     1  lig         0.9321
     19 C8         14.2899   17.6904   30.7548 C.3     1  lig        -0.0452
     20 C9         14.3834   16.6130   31.8357 C.3     1  lig        -0.0740
     21 N1         13.0836   16.5374   32.5017 N.4     1  lig        -0.8252
     22 O1         16.4480   17.5379   32.3106 O.co2   1  lig        -0.7573
     23 O2         15.4624   16.6340   34.0323 O.co2   1  lig        -0.7573
     24 O3         16.3143   16.2293   25.8085 O.3     1  lig        -0.4913
@<TRIPOS>BOND
     1     1    12    1
     2     2    13    1
     3     3    14    1
     4     4    15    1
     5     5    19    1
     6     6    19    1
     7     7    20    1
     8     8    21    1
     9     9    21    1
    10    10    21    1
    11    11    24    1
    12    12    14   ar
    13    12    16   ar
    14    13    15   ar
    15    13    16   ar
    16    14    17   ar
    17    15    17   ar
    18    16    19    1
    19    17    24    1
    20    18    20    1
    21    18    22    1
    22    18    23    1
    23    19    20    1
    24    20    21    1
@<TRIPOS>SUBSTRUCTURE
     1 lig         1 TEMP              0 ****  ****    0 ROOT


########## Name:		ligand
########## HA_RMSDs:		15.1336
########## HA_RMSDh:		15.0608
########## HA_RMSDm:		12.8236
########## Cluster Size:	1
##########    Grid Score:          -23.270445
##########      Grid_vdw:          -17.905844
##########       Grid_es:           -5.364601
##########    Int_energy:            4.298934

@<TRIPOS>MOLECULE
ligand
 24 24 1 0 0
SMALL
No Charge or Current Charge


@<TRIPOS>ATOM
      1 H1          7.3077    5.6261   19.8769 H       1  lig         0.1340
      2 H2          7.2316    9.0385   22.4391 H       1  lig         0.1340
      3 H3          5.5142    4.6369   21.2011 H       1  lig         0.1475
      4 H4          5.4546    8.0236   23.8107 H       1  lig         0.1475
      5 H5          8.9916    7.2090   19.6956 H       1  lig         0.0877
      6 H6          8.0816    8.6719   19.4896 H       1  lig         0.0877
      7 H7          9.1053    9.3665   21.8402 H       1  lig         0.0966
      8 H8          9.6116   10.3703   19.6670 H       1  lig         0.4431
      9 H9         11.0227   10.2202   20.5268 H       1  lig         0.4431
     10 H10        10.6729    9.1307   19.3164 H       1  lig         0.4431
     11 H11         4.5895    5.8174   24.1984 H       1  lig         0.4214
     12 C1          6.9153    6.1588   20.7394 C.ar    1  lig        -0.0999
     13 C2          6.8504    8.0546   22.1762 C.ar    1  lig        -0.0999
     14 C3          5.9058    5.6088   21.4805 C.ar    1  lig        -0.1787
     15 C4          5.8583    7.4909   22.9556 C.ar    1  lig        -0.1787
     16 C5          7.3970    7.3831   21.0886 C.ar    1  lig        -0.1394
     17 C6          5.3975    6.2318   22.5894 C.ar    1  lig         0.1292
     18 C7         10.5293    7.8184   21.6902 C.2     1  lig         0.9321
     19 C8          8.5002    8.0113   20.2585 C.3     1  lig        -0.0452
     20 C9          9.5637    8.7829   21.0405 C.3     1  lig        -0.0740
     21 N1         10.2426    9.6774   20.1037 N.4     1  lig        -0.8252
     22 O1         10.0306    6.7498   22.0368 O.co2   1  lig        -0.7573
     23 O2         11.7476    8.0860   21.8975 O.co2   1  lig        -0.7573
     24 O3          4.4471    5.6653   23.2195 O.3     1  lig        -0.4913
@<TRIPOS>BOND
     1     1    12    1
     2     2    13    1
     3     3    14    1
     4     4    15    1
     5     5    19    1
     6     6    19    1
     7     7    20    1
     8     8    21    1
     9     9    21    1
    10    10    21    1
    11    11    24    1
    12    12    14   ar
    13    12    16   ar
    14    13    15   ar
    15    13    16   ar
    16    14    17   ar
    17    15    17   ar
    18    16    19    1
    19    17    24    1
    20    18    20    1
    21    18    22    1
    22    18    23    1
    23    19    20    1
    24    20    21    1
@<TRIPOS>SUBSTRUCTURE
     1 lig         1 TEMP              0 ****  ****    0 ROOT


########## Name:		ligand
########## HA_RMSDs:		12.3562
########## HA_RMSDh:		12.2680
########## HA_RMSDm:		10.0426
########## Cluster Size:	7
##########    Grid Score:          -23.256323
##########      Grid_vdw:          -18.002081
##########       Grid_es:           -5.254242
##########    Int_energy:            3.281588

@<TRIPOS>MOLECULE
ligand
 24 24 1 0 0
SMALL
No Charge or Current Charge


@<TRIPOS>ATOM
      1 H1         10.2395    9.7498   19.7732 H       1  lig         0.1340
      2 H2         10.6555    7.5671   23.4171 H       1  lig         0.1340
      3 H3          7.8609    9.2101   19.7637 H       1  lig         0.1475
      4 H4          8.2640    6.9764   23.3875 H       1  lig         0.1475
      5 H5         12.6190    8.1453   21.9795 H       1  lig         0.0877
      6 H6         12.4572    9.1656   20.5854 H       1  lig         0.0877
      7 H7         12.1702   10.0888   23.4891 H       1  lig         0.0966
      8 H8         10.7350   11.3107   21.9289 H       1  lig         0.4431
      9 H9         11.9950   12.2934   22.3758 H       1  lig         0.4431
     10 H10        12.0213   11.5403   20.8903 H       1  lig         0.4431
     11 H11         6.2253    8.6387   21.0951 H       1  lig         0.4214
     12 C1          9.8209    9.1365   20.5671 C.ar    1  lig        -0.0999
     13 C2         10.0283    7.9207   22.6022 C.ar    1  lig        -0.0999
     14 C3          8.4864    8.8369   20.5672 C.ar    1  lig        -0.1787
     15 C4          8.6896    7.5785   22.5910 C.ar    1  lig        -0.1787
     16 C5         10.5999    8.6735   21.5828 C.ar    1  lig        -0.1394
     17 C6          7.9202    8.0474   21.5327 C.ar    1  lig         0.1292
     18 C7         13.9617   10.4239   22.4284 C.2     1  lig         0.9321
     19 C8         12.0764    9.0205   21.6036 C.3     1  lig        -0.0452
     20 C9         12.4621   10.2354   22.4481 C.3     1  lig        -0.0740
     21 N1         11.7648   11.3978   21.8992 N.4     1  lig        -0.8252
     22 O1         14.6074    9.3836   22.3210 O.co2   1  lig        -0.7573
     23 O2         14.5239   11.5505   22.5447 O.co2   1  lig        -0.7573
     24 O3          6.6677    7.8253   21.4751 O.3     1  lig        -0.4913
@<TRIPOS>BOND
     1     1    12    1
     2     2    13    1
     3     3    14    1
     4     4    15    1
     5     5    19    1
     6     6    19    1
     7     7    20    1
     8     8    21    1
     9     9    21    1
    10    10    21    1
    11    11    24    1
    12    12    14   ar
    13    12    16   ar
    14    13    15   ar
    15    13    16   ar
    16    14    17   ar
    17    15    17   ar
    18    16    19    1
    19    17    24    1
    20    18    20    1
    21    18    22    1
    22    18    23    1
    23    19    20    1
    24    20    21    1
@<TRIPOS>SUBSTRUCTURE
     1 lig         1 TEMP              0 ****  ****    0 ROOT


########## Name:		ligand
########## HA_RMSDs:		14.1108
########## HA_RMSDh:		14.0696
########## HA_RMSDm:		12.4764
########## Cluster Size:	3
##########    Grid Score:          -23.218323
##########      Grid_vdw:          -15.439464
##########       Grid_es:           -7.778858
##########    Int_energy:            1.511055

@<TRIPOS>MOLECULE
ligand
 24 24 1 0 0
SMALL
No Charge or Current Charge


@<TRIPOS>ATOM
      1 H1         24.7547    5.3980   15.1718 H       1  lig         0.1340
      2 H2         25.6469    8.3558   12.2272 H       1  lig         0.1340
      3 H3         22.5094    5.1996   14.2400 H       1  lig         0.1475
      4 H4         23.3650    8.1966   11.3126 H       1  lig         0.1475
      5 H5         26.8808    6.1937   15.0421 H       1  lig         0.0877
      6 H6         27.4861    6.8500   13.5543 H       1  lig         0.0877
      7 H7         26.1573    8.7783   15.4671 H       1  lig         0.0966
      8 H8         27.0087    9.4601   13.2769 H       1  lig         0.4431
      9 H9         27.9482   10.1558   14.4544 H       1  lig         0.4431
     10 H10        28.5073    8.8180   13.6345 H       1  lig         0.4431
     11 H11        21.0012    6.3256   13.0881 H       1  lig         0.4214
     12 C1         24.4612    6.0211   14.3308 C.ar    1  lig        -0.0999
     13 C2         24.9391    7.6627   12.6757 C.ar    1  lig        -0.0999
     14 C3         23.2045    5.9080   13.8028 C.ar    1  lig        -0.1787
     15 C4         23.6596    7.5855   12.1598 C.ar    1  lig        -0.1787
     16 C5         25.3330    6.9049   13.7726 C.ar    1  lig        -0.1394
     17 C6         22.7827    6.6895   12.7600 C.ar    1  lig         0.1292
     18 C7         28.0067    8.0782   16.1996 C.2     1  lig         0.9321
     19 C8         26.7364    7.0202   14.3365 C.3     1  lig        -0.0452
     20 C9         27.0614    8.3339   15.0482 C.3     1  lig        -0.0740
     21 N1         27.6456    9.2414   14.0614 N.4     1  lig        -0.8252
     22 O1         27.4577    7.9206   17.2878 O.co2   1  lig        -0.7573
     23 O2         29.2650    8.0573   16.0764 O.co2   1  lig        -0.7573
     24 O3         21.6037    6.5156   12.3118 O.3     1  lig        -0.4913
@<TRIPOS>BOND
     1     1    12    1
     2     2    13    1
     3     3    14    1
     4     4    15    1
     5     5    19    1
     6     6    19    1
     7     7    20    1
     8     8    21    1
     9     9    21    1
    10    10    21    1
    11    11    24    1
    12    12    14   ar
    13    12    16   ar
    14    13    15   ar
    15    13    16   ar
    16    14    17   ar
    17    15    17   ar
    18    16    19    1
    19    17    24    1
    20    18    20    1
    21    18    22    1
    22    18    23    1
    23    19    20    1
    24    20    21    1
@<TRIPOS>SUBSTRUCTURE
     1 lig         1 TEMP              0 ****  ****    0 ROOT


########## Name:		ligand
########## HA_RMSDs:		13.9487
########## HA_RMSDh:		13.8971
########## HA_RMSDm:		11.6925
########## Cluster Size:	3
##########    Grid Score:          -23.206587
##########      Grid_vdw:          -19.906384
##########       Grid_es:           -3.300203
##########    Int_energy:            1.726716

@<TRIPOS>MOLECULE
ligand
 24 24 1 0 0
SMALL
No Charge or Current Charge


@<TRIPOS>ATOM
      1 H1         10.7196   10.1588   22.3423 H       1  lig         0.1340
      2 H2          6.9223    8.7622   23.7008 H       1  lig         0.1340
      3 H3         10.1978    9.3042   20.1183 H       1  lig         0.1475
      4 H4          6.4096    7.8525   21.4695 H       1  lig         0.1475
      5 H5          8.7501    9.3456   25.2815 H       1  lig         0.0877
      6 H6         10.2547   10.0184   24.7391 H       1  lig         0.0877
      7 H7          7.6200   11.5500   24.5018 H       1  lig         0.0966
      8 H8          9.4931   12.2646   23.0990 H       1  lig         0.4431
      9 H9          9.2616   13.3918   24.2943 H       1  lig         0.4431
     10 H10        10.5056   12.2919   24.4257 H       1  lig         0.4431
     11 H11         8.8439    8.4391   18.8884 H       1  lig         0.4214
     12 C1          9.7751    9.6503   22.1662 C.ar    1  lig        -0.0999
     13 C2          7.6502    8.8700   22.9001 C.ar    1  lig        -0.0999
     14 C3          9.4776    9.1749   20.9188 C.ar    1  lig        -0.1787
     15 C4          7.3561    8.3505   21.6539 C.ar    1  lig        -0.1787
     16 C5          8.8639    9.4938   23.1652 C.ar    1  lig        -0.1394
     17 C6          8.3114    8.5062   20.6563 C.ar    1  lig         0.1292
     18 C7          8.6611   11.6999   26.3296 C.2     1  lig         0.9321
     19 C8          9.1752   10.0387   24.5462 C.3     1  lig        -0.0452
     20 C9          8.6521   11.4452   24.8397 C.3     1  lig        -0.0740
     21 N1          9.5041   12.3946   24.1247 N.4     1  lig        -0.8252
     22 O1          9.7321   11.4618   26.8834 O.co2   1  lig        -0.7573
     23 O2          7.6480   12.0947   26.9750 O.co2   1  lig        -0.7573
     24 O3          8.0973    8.1070   19.4663 O.3     1  lig        -0.4913
@<TRIPOS>BOND
     1     1    12    1
     2     2    13    1
     3     3    14    1
     4     4    15    1
     5     5    19    1
     6     6    19    1
     7     7    20    1
     8     8    21    1
     9     9    21    1
    10    10    21    1
    11    11    24    1
    12    12    14   ar
    13    12    16   ar
    14    13    15   ar
    15    13    16   ar
    16    14    17   ar
    17    15    17   ar
    18    16    19    1
    19    17    24    1
    20    18    20    1
    21    18    22    1
    22    18    23    1
    23    19    20    1
    24    20    21    1
@<TRIPOS>SUBSTRUCTURE
     1 lig         1 TEMP              0 ****  ****    0 ROOT


########## Name:		ligand
########## HA_RMSDs:		13.5416
########## HA_RMSDh:		13.5052
########## HA_RMSDm:		11.0867
########## Cluster Size:	7
##########    Grid Score:          -23.204159
##########      Grid_vdw:          -19.788445
##########       Grid_es:           -3.415715
##########    Int_energy:            2.266152

@<TRIPOS>MOLECULE
ligand
 24 24 1 0 0
SMALL
No Charge or Current Charge


@<TRIPOS>ATOM
      1 H1         10.3338    6.5632   21.9368 H       1  lig         0.1340
      2 H2          8.5976    9.8306   19.8095 H       1  lig         0.1340
      3 H3          8.2111    5.3737   21.7701 H       1  lig         0.1475
      4 H4          6.4361    8.6555   19.6812 H       1  lig         0.1475
      5 H5         11.6107    8.3879   21.5555 H       1  lig         0.0877
      6 H6         11.3721    9.1122   19.9969 H       1  lig         0.0877
      7 H7         10.1826   11.0562   21.0960 H       1  lig         0.0966
      8 H8         12.5881   11.0743   20.6489 H       1  lig         0.4431
      9 H9         12.3035   11.8837   22.0691 H       1  lig         0.4431
     10 H10        12.8880   10.3245   22.1096 H       1  lig         0.4431
     11 H11         6.2698    5.3962   21.2011 H       1  lig         0.4214
     12 C1          9.4865    7.0352   21.4459 C.ar    1  lig        -0.0999
     13 C2          8.5002    8.8420   20.2520 C.ar    1  lig        -0.0999
     14 C3          8.2966    6.3683   21.3462 C.ar    1  lig        -0.1787
     15 C4          7.2820    8.1938   20.1807 C.ar    1  lig        -0.1787
     16 C5          9.5915    8.2794   20.9040 C.ar    1  lig        -0.1394
     17 C6          7.1955    6.9328   20.7588 C.ar    1  lig         0.1292
     18 C7         10.3414   10.2878   23.0533 C.2     1  lig         0.9321
     19 C8         10.9142    9.0171   20.9890 C.3     1  lig        -0.0452
     20 C9         10.8639   10.4000   21.6394 C.3     1  lig        -0.0740
     21 N1         12.2160   10.9562   21.6063 N.4     1  lig        -0.8252
     22 O1          9.1205   10.3841   23.1573 O.co2   1  lig        -0.7573
     23 O2         11.0886   10.1394   24.0625 O.co2   1  lig        -0.7573
     24 O3          6.1268    6.2440   20.6890 O.3     1  lig        -0.4913
@<TRIPOS>BOND
     1     1    12    1
     2     2    13    1
     3     3    14    1
     4     4    15    1
     5     5    19    1
     6     6    19    1
     7     7    20    1
     8     8    21    1
     9     9    21    1
    10    10    21    1
    11    11    24    1
    12    12    14   ar
    13    12    16   ar
    14    13    15   ar
    15    13    16   ar
    16    14    17   ar
    17    15    17   ar
    18    16    19    1
    19    17    24    1
    20    18    20    1
    21    18    22    1
    22    18    23    1
    23    19    20    1
    24    20    21    1
@<TRIPOS>SUBSTRUCTURE
     1 lig         1 TEMP              0 ****  ****    0 ROOT


########## Name:		ligand
########## HA_RMSDs:		12.2042
########## HA_RMSDh:		12.1345
########## HA_RMSDm:		8.2432
########## Cluster Size:	2
##########    Grid Score:          -23.134014
##########      Grid_vdw:          -18.925163
##########       Grid_es:           -4.208850
##########    Int_energy:            8.458652

@<TRIPOS>MOLECULE
ligand
 24 24 1 0 0
SMALL
No Charge or Current Charge


@<TRIPOS>ATOM
      1 H1         16.9214   18.7385   28.5825 H       1  lig         0.1340
      2 H2         14.4459   15.2792   28.9298 H       1  lig         0.1340
      3 H3         17.1921   18.2618   26.2059 H       1  lig         0.1475
      4 H4         14.7557   14.7638   26.5407 H       1  lig         0.1475
      5 H5         15.2845   16.3806   30.8923 H       1  lig         0.0877
      6 H6         16.4378   17.6756   30.8323 H       1  lig         0.0877
      7 H7         14.7217   19.0115   31.5082 H       1  lig         0.0966
      8 H8         13.4200   17.0075   32.0339 H       1  lig         0.4431
      9 H9         12.4015   18.1540   31.4006 H       1  lig         0.4431
     10 H10        12.9177   16.8900   30.4466 H       1  lig         0.4431
     11 H11        16.9217   16.9379   24.6749 H       1  lig         0.4214
     12 C1         16.4470   17.8616   28.1494 C.ar    1  lig        -0.0999
     13 C2         15.0637   15.9327   28.3183 C.ar    1  lig        -0.0999
     14 C3         16.5927   17.5949   26.8158 C.ar    1  lig        -0.1787
     15 C4         15.2368   15.6315   26.9809 C.ar    1  lig        -0.1787
     16 C5         15.6860   17.0266   28.9087 C.ar    1  lig        -0.1394
     17 C6         16.0343   16.4887   26.2320 C.ar    1  lig         0.1292
     18 C7         14.0648   19.1671   29.5104 C.2     1  lig         0.9321
     19 C8         15.4995   17.3277   30.3836 C.3     1  lig        -0.0452
     20 C9         14.3940   18.3278   30.7237 C.3     1  lig        -0.0740
     21 N1         13.2332   17.5675   31.1851 N.4     1  lig        -0.8252
     22 O1         13.5011   18.5579   28.6039 O.co2   1  lig        -0.7573
     23 O2         14.3670   20.3905   29.4067 O.co2   1  lig        -0.7573
     24 O3         16.2002   16.3157   24.9814 O.3     1  lig        -0.4913
@<TRIPOS>BOND
     1     1    12    1
     2     2    13    1
     3     3    14    1
     4     4    15    1
     5     5    19    1
     6     6    19    1
     7     7    20    1
     8     8    21    1
     9     9    21    1
    10    10    21    1
    11    11    24    1
    12    12    14   ar
    13    12    16   ar
    14    13    15   ar
    15    13    16   ar
    16    14    17   ar
    17    15    17   ar
    18    16    19    1
    19    17    24    1
    20    18    20    1
    21    18    22    1
    22    18    23    1
    23    19    20    1
    24    20    21    1
@<TRIPOS>SUBSTRUCTURE
     1 lig         1 TEMP              0 ****  ****    0 ROOT


########## Name:		ligand
########## HA_RMSDs:		13.0061
########## HA_RMSDh:		12.9364
########## HA_RMSDm:		11.4364
########## Cluster Size:	7
##########    Grid Score:          -23.104870
##########      Grid_vdw:          -18.717196
##########       Grid_es:           -4.387674
##########    Int_energy:            3.476602

@<TRIPOS>MOLECULE
ligand
 24 24 1 0 0
SMALL
No Charge or Current Charge


@<TRIPOS>ATOM
      1 H1          7.5743    9.1237   23.4662 H       1  lig         0.1340
      2 H2         10.9708   11.4998   22.4495 H       1  lig         0.1340
      3 H3          7.9905    7.7499   21.4943 H       1  lig         0.1475
      4 H4         11.3673   10.1470   20.4292 H       1  lig         0.1475
      5 H5          8.9959   12.3092   23.9918 H       1  lig         0.0877
      6 H6          7.9790   11.0926   24.6964 H       1  lig         0.0877
      7 H7         10.7788   10.3768   25.1546 H       1  lig         0.0966
      8 H8          8.8218    9.6398   26.4249 H       1  lig         0.4431
      9 H9          9.8520   10.4409   27.4496 H       1  lig         0.4431
     10 H10         8.4929   11.2132   26.8743 H       1  lig         0.4431
     11 H11         9.6097    8.6055   19.0016 H       1  lig         0.4214
     12 C1          8.4044    9.3624   22.8061 C.ar    1  lig        -0.0999
     13 C2         10.3062   10.6691   22.2242 C.ar    1  lig        -0.0999
     14 C3          8.6434    8.5904   21.7027 C.ar    1  lig        -0.1787
     15 C4         10.5329    9.9205   21.0852 C.ar    1  lig        -0.1787
     16 C5          9.2324   10.4106   23.0684 C.ar    1  lig        -0.1394
     17 C6          9.6617    8.8681   20.8297 C.ar    1  lig         0.1292
     18 C7         10.6652   12.3960   25.7520 C.2     1  lig         0.9321
     19 C8          8.9892   11.2579   24.3028 C.3     1  lig        -0.0452
     20 C9          9.9937   11.0779   25.4415 C.3     1  lig        -0.0740
     21 N1          9.2658   10.5573   26.5981 N.4     1  lig        -0.8252
     22 O1         11.0585   13.0153   24.7659 O.co2   1  lig        -0.7573
     23 O2         10.8452   12.8263   26.9272 O.co2   1  lig        -0.7573
     24 O3          9.8320    8.0944   19.8328 O.3     1  lig        -0.4913
@<TRIPOS>BOND
     1     1    12    1
     2     2    13    1
     3     3    14    1
     4     4    15    1
     5     5    19    1
     6     6    19    1
     7     7    20    1
     8     8    21    1
     9     9    21    1
    10    10    21    1
    11    11    24    1
    12    12    14   ar
    13    12    16   ar
    14    13    15   ar
    15    13    16   ar
    16    14    17   ar
    17    15    17   ar
    18    16    19    1
    19    17    24    1
    20    18    20    1
    21    18    22    1
    22    18    23    1
    23    19    20    1
    24    20    21    1
@<TRIPOS>SUBSTRUCTURE
     1 lig         1 TEMP              0 ****  ****    0 ROOT


########## Name:		ligand
########## HA_RMSDs:		13.0715
########## HA_RMSDh:		13.0175
########## HA_RMSDm:		10.9036
########## Cluster Size:	9
##########    Grid Score:          -23.049732
##########      Grid_vdw:          -20.478115
##########       Grid_es:           -2.571616
##########    Int_energy:            1.642547

@<TRIPOS>MOLECULE
ligand
 24 24 1 0 0
SMALL
No Charge or Current Charge


@<TRIPOS>ATOM
      1 H1          8.0887    9.4482   23.6783 H       1  lig         0.1340
      2 H2         11.7292   10.1594   21.5672 H       1  lig         0.1340
      3 H3          7.1873    8.3669   21.6866 H       1  lig         0.1475
      4 H4         10.8072    9.1131   19.5364 H       1  lig         0.1475
      5 H5         10.2406    9.9386   24.8448 H       1  lig         0.0877
      6 H6         11.6247   10.5137   23.9706 H       1  lig         0.0877
      7 H7          9.7128   12.4450   23.3138 H       1  lig         0.0966
      8 H8         12.0312   12.7604   24.0295 H       1  lig         0.4431
      9 H9         11.0508   13.7255   24.9571 H       1  lig         0.4431
     10 H10        11.6377   12.2984   25.5844 H       1  lig         0.4431
     11 H11         8.7988    8.4562   18.6647 H       1  lig         0.4214
     12 C1          8.6921    9.3871   22.7761 C.ar    1  lig        -0.0999
     13 C2         10.7153    9.7665   21.5823 C.ar    1  lig        -0.0999
     14 C3          8.1911    8.7764   21.6595 C.ar    1  lig        -0.1787
     15 C4         10.2048    9.1875   20.4363 C.ar    1  lig        -0.1787
     16 C5          9.9560    9.8912   22.7400 C.ar    1  lig        -0.1394
     17 C6          8.9052    8.6981   20.4933 C.ar    1  lig         0.1292
     18 C7          8.9584   12.0197   25.2365 C.2     1  lig         0.9321
     19 C8         10.5286   10.5492   23.9810 C.3     1  lig        -0.0452
     20 C9         10.0879   11.9916   24.2325 C.3     1  lig        -0.0740
     21 N1         11.2530   12.7355   24.7098 N.4     1  lig        -0.8252
     22 O1          7.8340   11.9560   24.7445 O.co2   1  lig        -0.7573
     23 O2          9.1372   12.1323   26.4832 O.co2   1  lig        -0.7573
     24 O3          8.3785    8.1001   19.5002 O.3     1  lig        -0.4913
@<TRIPOS>BOND
     1     1    12    1
     2     2    13    1
     3     3    14    1
     4     4    15    1
     5     5    19    1
     6     6    19    1
     7     7    20    1
     8     8    21    1
     9     9    21    1
    10    10    21    1
    11    11    24    1
    12    12    14   ar
    13    12    16   ar
    14    13    15   ar
    15    13    16   ar
    16    14    17   ar
    17    15    17   ar
    18    16    19    1
    19    17    24    1
    20    18    20    1
    21    18    22    1
    22    18    23    1
    23    19    20    1
    24    20    21    1
@<TRIPOS>SUBSTRUCTURE
     1 lig         1 TEMP              0 ****  ****    0 ROOT


########## Name:		ligand
########## HA_RMSDs:		13.8100
########## HA_RMSDh:		13.7717
########## HA_RMSDm:		11.5824
########## Cluster Size:	2
##########    Grid Score:          -23.000168
##########      Grid_vdw:          -17.541100
##########       Grid_es:           -5.459069
##########    Int_energy:            3.985881

@<TRIPOS>MOLECULE
ligand
 24 24 1 0 0
SMALL
No Charge or Current Charge


@<TRIPOS>ATOM
      1 H1          7.9857    9.5137   22.7739 H       1  lig         0.1340
      2 H2          9.3196    7.2879   19.3853 H       1  lig         0.1340
      3 H3          6.1636    7.9177   23.0596 H       1  lig         0.1475
      4 H4          7.4526    5.7006   19.6381 H       1  lig         0.1475
      5 H5         10.5780    9.0804   20.1220 H       1  lig         0.0877
      6 H6          9.5431   10.4356   20.4431 H       1  lig         0.0877
      7 H7         10.0381    9.9124   23.0001 H       1  lig         0.0966
      8 H8         10.7915   11.8638   21.7307 H       1  lig         0.4431
      9 H9         12.0354   11.3442   22.6981 H       1  lig         0.4431
     10 H10        12.0452   10.9800   21.0728 H       1  lig         0.4431
     11 H11         5.3984    6.0792   22.5354 H       1  lig         0.4214
     12 C1          7.8767    8.6869   22.0766 C.ar    1  lig        -0.0999
     13 C2          8.6068    7.4265   20.1949 C.ar    1  lig        -0.0999
     14 C3          6.8591    7.7874   22.2377 C.ar    1  lig        -0.1787
     15 C4          7.5593    6.5347   20.3243 C.ar    1  lig        -0.1787
     16 C5          8.7524    8.5136   21.0490 C.ar    1  lig        -0.1394
     17 C6          6.6679    6.7451   21.3698 C.ar    1  lig         0.1292
     18 C7         11.6491    8.6698   22.4453 C.2     1  lig         0.9321
     19 C8          9.8980    9.4928   20.8766 C.3     1  lig        -0.0452
     20 C9         10.7006    9.8064   22.1397 C.3     1  lig        -0.0740
     21 N1         11.4170   11.0606   21.9111 N.4     1  lig        -0.8252
     22 O1         11.2011    7.5505   22.2064 O.co2   1  lig        -0.7573
     23 O2         12.8015    8.8375   22.9377 O.co2   1  lig        -0.7573
     24 O3          5.7080    5.9391   21.5940 O.3     1  lig        -0.4913
@<TRIPOS>BOND
     1     1    12    1
     2     2    13    1
     3     3    14    1
     4     4    15    1
     5     5    19    1
     6     6    19    1
     7     7    20    1
     8     8    21    1
     9     9    21    1
    10    10    21    1
    11    11    24    1
    12    12    14   ar
    13    12    16   ar
    14    13    15   ar
    15    13    16   ar
    16    14    17   ar
    17    15    17   ar
    18    16    19    1
    19    17    24    1
    20    18    20    1
    21    18    22    1
    22    18    23    1
    23    19    20    1
    24    20    21    1
@<TRIPOS>SUBSTRUCTURE
     1 lig         1 TEMP              0 ****  ****    0 ROOT


########## Name:		ligand
########## HA_RMSDs:		12.7161
########## HA_RMSDh:		12.6379
########## HA_RMSDm:		10.7850
########## Cluster Size:	4
##########    Grid Score:          -22.990761
##########      Grid_vdw:          -17.847799
##########       Grid_es:           -5.142962
##########    Int_energy:            1.358495

@<TRIPOS>MOLECULE
ligand
 24 24 1 0 0
SMALL
No Charge or Current Charge


@<TRIPOS>ATOM
      1 H1         11.1032   11.3088   21.8684 H       1  lig         0.1340
      2 H2          7.9346    8.9480   23.4816 H       1  lig         0.1340
      3 H3         11.1642    9.8346   19.9263 H       1  lig         0.1475
      4 H4          8.0246    7.4260   21.5466 H       1  lig         0.1475
      5 H5          9.4755   12.1622   23.6364 H       1  lig         0.0877
      6 H6          8.5212   11.0268   24.5367 H       1  lig         0.0877
      7 H7         11.2698   10.1512   24.7357 H       1  lig         0.0966
      8 H8          9.4559    9.8347   26.3470 H       1  lig         0.4431
      9 H9         10.7049   10.6270   27.0989 H       1  lig         0.4431
     10 H10         9.3645   11.4817   26.6016 H       1  lig         0.4431
     11 H11         9.5935    8.4259   18.7781 H       1  lig         0.4214
     12 C1         10.4280   10.4586   21.8134 C.ar    1  lig        -0.0999
     13 C2          8.6574    9.1326   22.6903 C.ar    1  lig        -0.0999
     14 C3         10.4564    9.6335   20.7229 C.ar    1  lig        -0.1787
     15 C4          8.7046    8.2694   21.6123 C.ar    1  lig        -0.1787
     16 C5          9.5313   10.2074   22.8062 C.ar    1  lig        -0.1394
     17 C6          9.6422    8.5367   20.6217 C.ar    1  lig         0.1292
     18 C7         11.4589   12.2290   25.0420 C.2     1  lig         0.9321
     19 C8          9.4766   11.1309   24.0083 C.3     1  lig        -0.0452
     20 C9         10.6140   10.9759   25.0184 C.3     1  lig        -0.0740
     21 N1         10.0147   10.7043   26.3244 N.4     1  lig        -0.8252
     22 O1         12.3207   12.2823   24.1673 O.co2   1  lig        -0.7573
     23 O2         11.3249   13.1434   25.9050 O.co2   1  lig        -0.7573
     24 O3          9.7145    7.8244   19.5688 O.3     1  lig        -0.4913
@<TRIPOS>BOND
     1     1    12    1
     2     2    13    1
     3     3    14    1
     4     4    15    1
     5     5    19    1
     6     6    19    1
     7     7    20    1
     8     8    21    1
     9     9    21    1
    10    10    21    1
    11    11    24    1
    12    12    14   ar
    13    12    16   ar
    14    13    15   ar
    15    13    16   ar
    16    14    17   ar
    17    15    17   ar
    18    16    19    1
    19    17    24    1
    20    18    20    1
    21    18    22    1
    22    18    23    1
    23    19    20    1
    24    20    21    1
@<TRIPOS>SUBSTRUCTURE
     1 lig         1 TEMP              0 ****  ****    0 ROOT


########## Name:		ligand
########## HA_RMSDs:		12.9324
########## HA_RMSDh:		12.8727
########## HA_RMSDm:		10.6070
########## Cluster Size:	12
##########    Grid Score:          -22.961271
##########      Grid_vdw:          -18.041689
##########       Grid_es:           -4.919583
##########    Int_energy:            1.310880

@<TRIPOS>MOLECULE
ligand
 24 24 1 0 0
SMALL
No Charge or Current Charge


@<TRIPOS>ATOM
      1 H1         11.6561   10.5177   21.6167 H       1  lig         0.1340
      2 H2          8.2943    9.4946   24.0389 H       1  lig         0.1340
      3 H3         10.5809    9.4182   19.7236 H       1  lig         0.1475
      4 H4          7.2252    8.3391   22.1440 H       1  lig         0.1475
      5 H5         10.7818   10.0273   24.9462 H       1  lig         0.0877
      6 H6         11.7484   11.0138   23.8960 H       1  lig         0.0877
      7 H7          8.9133   11.8485   24.6571 H       1  lig         0.0966
      8 H8         10.0135   12.9479   22.7683 H       1  lig         0.4431
      9 H9          9.9211   14.0213   24.0301 H       1  lig         0.4431
     10 H10        11.3624   13.2533   23.7027 H       1  lig         0.4431
     11 H11         8.7708    8.6886   18.9675 H       1  lig         0.4214
     12 C1         10.6888   10.0391   21.7472 C.ar    1  lig        -0.0999
     13 C2          8.8011    9.4645   23.0772 C.ar    1  lig        -0.0999
     14 C3         10.0812    9.4266   20.6860 C.ar    1  lig        -0.1787
     15 C4          8.1963    8.8082   22.0223 C.ar    1  lig        -0.1787
     16 C5         10.0532   10.0551   22.9508 C.ar    1  lig        -0.1394
     17 C6          8.8749    8.7895   20.8094 C.ar    1  lig         0.1292
     18 C7         10.4208   12.2939   26.0629 C.2     1  lig         0.9321
     19 C8         10.7087   10.7526   24.1275 C.3     1  lig        -0.0452
     20 C9          9.9934   12.0019   24.6427 C.3     1  lig        -0.0740
     21 N1         10.3228   13.1060   23.7421 N.4     1  lig        -0.8252
     22 O1         11.6207   12.5219   26.2000 O.co2   1  lig        -0.7573
     23 O2          9.6268   12.2769   27.0468 O.co2   1  lig        -0.7573
     24 O3          8.3637    8.2554   19.7727 O.3     1  lig        -0.4913
@<TRIPOS>BOND
     1     1    12    1
     2     2    13    1
     3     3    14    1
     4     4    15    1
     5     5    19    1
     6     6    19    1
     7     7    20    1
     8     8    21    1
     9     9    21    1
    10    10    21    1
    11    11    24    1
    12    12    14   ar
    13    12    16   ar
    14    13    15   ar
    15    13    16   ar
    16    14    17   ar
    17    15    17   ar
    18    16    19    1
    19    17    24    1
    20    18    20    1
    21    18    22    1
    22    18    23    1
    23    19    20    1
    24    20    21    1
@<TRIPOS>SUBSTRUCTURE
     1 lig         1 TEMP              0 ****  ****    0 ROOT


########## Name:		ligand
########## HA_RMSDs:		12.8135
########## HA_RMSDh:		12.7278
########## HA_RMSDm:		10.4613
########## Cluster Size:	4
##########    Grid Score:          -22.946726
##########      Grid_vdw:          -17.787207
##########       Grid_es:           -5.159519
##########    Int_energy:            3.310927

@<TRIPOS>MOLECULE
ligand
 24 24 1 0 0
SMALL
No Charge or Current Charge


@<TRIPOS>ATOM
      1 H1         10.2904    9.7277   19.9055 H       1  lig         0.1340
      2 H2          9.0817    9.8109   23.9979 H       1  lig         0.1340
      3 H3          8.2922    8.4319   19.3793 H       1  lig         0.1475
      4 H4          7.0873    8.4598   23.4819 H       1  lig         0.1475
      5 H5         11.1748   11.4036   21.5295 H       1  lig         0.0877
      6 H6         10.9000   11.2341   23.2343 H       1  lig         0.0877
      7 H7         13.1030   10.4474   23.0001 H       1  lig         0.0966
      8 H8         13.0529   10.4436   20.5539 H       1  lig         0.4431
      9 H9         13.7181    9.0160   21.0758 H       1  lig         0.4431
     10 H10        12.1371    9.0482   20.5524 H       1  lig         0.4431
     11 H11         5.7728    8.2986   21.0574 H       1  lig         0.4214
     12 C1          9.6005    9.4514   20.6989 C.ar    1  lig        -0.0999
     13 C2          8.9035    9.4915   22.9738 C.ar    1  lig        -0.0999
     14 C3          8.4764    8.7295   20.4058 C.ar    1  lig        -0.1787
     15 C4          7.7857    8.7284   22.6956 C.ar    1  lig        -0.1787
     16 C5          9.8223    9.8305   21.9873 C.ar    1  lig        -0.1394
     17 C6          7.5923    8.3376   21.3758 C.ar    1  lig         0.1292
     18 C7         12.1224    8.5947   23.2303 C.2     1  lig         0.9321
     19 C8         11.0542   10.6516   22.3180 C.3     1  lig        -0.0452
     20 C9         12.3602    9.8675   22.4504 C.3     1  lig        -0.0740
     21 N1         12.8509    9.5900   21.1010 N.4     1  lig        -0.8252
     22 O1         12.3629    8.6783   24.4327 O.co2   1  lig        -0.7573
     23 O2         11.7386    7.5135   22.6989 O.co2   1  lig        -0.7573
     24 O3          6.5597    7.6810   21.0240 O.3     1  lig        -0.4913
@<TRIPOS>BOND
     1     1    12    1
     2     2    13    1
     3     3    14    1
     4     4    15    1
     5     5    19    1
     6     6    19    1
     7     7    20    1
     8     8    21    1
     9     9    21    1
    10    10    21    1
    11    11    24    1
    12    12    14   ar
    13    12    16   ar
    14    13    15   ar
    15    13    16   ar
    16    14    17   ar
    17    15    17   ar
    18    16    19    1
    19    17    24    1
    20    18    20    1
    21    18    22    1
    22    18    23    1
    23    19    20    1
    24    20    21    1
@<TRIPOS>SUBSTRUCTURE
     1 lig         1 TEMP              0 ****  ****    0 ROOT


########## Name:		ligand
########## HA_RMSDs:		13.8378
########## HA_RMSDh:		13.8077
########## HA_RMSDm:		12.3580
########## Cluster Size:	2
##########    Grid Score:          -22.924423
##########      Grid_vdw:          -17.194746
##########       Grid_es:           -5.729678
##########    Int_energy:            2.210206

@<TRIPOS>MOLECULE
ligand
 24 24 1 0 0
SMALL
No Charge or Current Charge


@<TRIPOS>ATOM
      1 H1         24.5217    5.4114   15.4864 H       1  lig         0.1340
      2 H2         25.4129    8.4558   12.6311 H       1  lig         0.1340
      3 H3         22.4193    4.9880   14.3248 H       1  lig         0.1475
      4 H4         23.2684    8.0675   11.4825 H       1  lig         0.1475
      5 H5         26.7758    6.2685   15.2239 H       1  lig         0.0877
      6 H6         27.1697    7.5671   14.1427 H       1  lig         0.0877
      7 H7         25.4856    8.0196   16.6524 H       1  lig         0.0966
      8 H8         25.4054    9.7109   14.8861 H       1  lig         0.4431
      9 H9         26.2586   10.3220   16.1712 H       1  lig         0.4431
     10 H10        27.0727    9.7634   14.8296 H       1  lig         0.4431
     11 H11        20.9276    5.9794   13.0139 H       1  lig         0.4214
     12 C1         24.2565    6.0044   14.6148 C.ar    1  lig        -0.0999
     13 C2         24.7362    7.6923   13.0075 C.ar    1  lig        -0.0999
     14 C3         23.0807    5.7653   13.9582 C.ar    1  lig        -0.1787
     15 C4         23.5328    7.4866   12.3603 C.ar    1  lig        -0.1787
     16 C5         25.0874    6.9748   14.1451 C.ar    1  lig        -0.1394
     17 C6         22.6936    6.5035   12.8713 C.ar    1  lig         0.1292
     18 C7         27.5811    8.0620   16.8848 C.2     1  lig         0.9321
     19 C8         26.4045    7.2308   14.8528 C.3     1  lig        -0.0452
     20 C9         26.3517    8.2180   16.0193 C.3     1  lig        -0.0740
     21 N1         26.2543    9.5648   15.4579 N.4     1  lig        -0.8252
     22 O1         28.6036    7.7612   16.2728 O.co2   1  lig        -0.7573
     23 O2         27.5692    8.1946   18.1422 O.co2   1  lig        -0.7573
     24 O3         21.5923    6.2116   12.3026 O.3     1  lig        -0.4913
@<TRIPOS>BOND
     1     1    12    1
     2     2    13    1
     3     3    14    1
     4     4    15    1
     5     5    19    1
     6     6    19    1
     7     7    20    1
     8     8    21    1
     9     9    21    1
    10    10    21    1
    11    11    24    1
    12    12    14   ar
    13    12    16   ar
    14    13    15   ar
    15    13    16   ar
    16    14    17   ar
    17    15    17   ar
    18    16    19    1
    19    17    24    1
    20    18    20    1
    21    18    22    1
    22    18    23    1
    23    19    20    1
    24    20    21    1
@<TRIPOS>SUBSTRUCTURE
     1 lig         1 TEMP              0 ****  ****    0 ROOT


########## Name:		ligand
########## HA_RMSDs:		13.7418
########## HA_RMSDh:		13.6917
########## HA_RMSDm:		11.6088
########## Cluster Size:	2
##########    Grid Score:          -22.922796
##########      Grid_vdw:          -14.914801
##########       Grid_es:           -8.007996
##########    Int_energy:            2.905548

@<TRIPOS>MOLECULE
ligand
 24 24 1 0 0
SMALL
No Charge or Current Charge


@<TRIPOS>ATOM
      1 H1         26.1714    6.2235   13.0989 H       1  lig         0.1340
      2 H2         25.9128    7.6166   17.1248 H       1  lig         0.1340
      3 H3         27.5500    8.1607   12.5554 H       1  lig         0.1475
      4 H4         27.2630    9.6014   16.5711 H       1  lig         0.1475
      5 H5         25.4596    4.7561   14.8899 H       1  lig         0.0877
      6 H6         25.2616    5.2937   16.5277 H       1  lig         0.0877
      7 H7         23.1979    6.6012   15.8114 H       1  lig         0.0966
      8 H8         23.0914    4.3358   16.7298 H       1  lig         0.4431
      9 H9         21.9176    4.4961   15.5682 H       1  lig         0.4431
     10 H10        23.3279    3.6849   15.2112 H       1  lig         0.4431
     11 H11        28.8465    9.6486   13.4480 H       1  lig         0.4214
     12 C1         26.3977    6.9588   13.8669 C.ar    1  lig        -0.0999
     13 C2         26.2731    7.7504   16.1076 C.ar    1  lig        -0.0999
     14 C3         27.1751    8.0432   13.5662 C.ar    1  lig        -0.1787
     15 C4         27.0240    8.8702   15.8053 C.ar    1  lig        -0.1787
     16 C5         25.9374    6.8111   15.1393 C.ar    1  lig        -0.1394
     17 C6         27.4654    9.0076   14.4946 C.ar    1  lig         0.1292
     18 C7         23.3136    6.0014   13.7931 C.2     1  lig         0.9321
     19 C8         25.0942    5.5992   15.4878 C.3     1  lig        -0.0452
     20 C9         23.5899    5.7471   15.2573 C.3     1  lig        -0.0740
     21 N1         22.9460    4.5194   15.7228 N.4     1  lig        -0.8252
     22 O1         23.2999    7.1879   13.4729 O.co2   1  lig        -0.7573
     23 O2         23.0808    5.0809   12.9580 O.co2   1  lig        -0.7573
     24 O3         28.2090    9.9802   14.1446 O.3     1  lig        -0.4913
@<TRIPOS>BOND
     1     1    12    1
     2     2    13    1
     3     3    14    1
     4     4    15    1
     5     5    19    1
     6     6    19    1
     7     7    20    1
     8     8    21    1
     9     9    21    1
    10    10    21    1
    11    11    24    1
    12    12    14   ar
    13    12    16   ar
    14    13    15   ar
    15    13    16   ar
    16    14    17   ar
    17    15    17   ar
    18    16    19    1
    19    17    24    1
    20    18    20    1
    21    18    22    1
    22    18    23    1
    23    19    20    1
    24    20    21    1
@<TRIPOS>SUBSTRUCTURE
     1 lig         1 TEMP              0 ****  ****    0 ROOT


########## Name:		ligand
########## HA_RMSDs:		12.0735
########## HA_RMSDh:		12.0384
########## HA_RMSDm:		10.4141
########## Cluster Size:	2
##########    Grid Score:          -22.884233
##########      Grid_vdw:          -21.116331
##########       Grid_es:           -1.767902
##########    Int_energy:            2.955281

@<TRIPOS>MOLECULE
ligand
 24 24 1 0 0
SMALL
No Charge or Current Charge


@<TRIPOS>ATOM
      1 H1          9.2271   10.9989   22.6674 H       1  lig         0.1340
      2 H2         12.1747    8.8620   20.4401 H       1  lig         0.1340
      3 H3         11.0151   12.0973   23.9107 H       1  lig         0.1475
      4 H4         13.9842    9.9304   21.7260 H       1  lig         0.1475
      5 H5          9.1314    9.8840   19.9469 H       1  lig         0.0877
      6 H6          9.8731    8.3258   20.1270 H       1  lig         0.0877
      7 H7          7.7222    9.5442   21.9170 H       1  lig         0.0966
      8 H8          9.4130    8.3948   23.2612 H       1  lig         0.4431
      9 H9          8.0421    7.4612   23.2166 H       1  lig         0.4431
     10 H10         9.3427    7.0657   22.2541 H       1  lig         0.4431
     11 H11        14.3487   11.2443   23.4665 H       1  lig         0.4214
     12 C1         10.2642   10.7513   22.4557 C.ar    1  lig        -0.0999
     13 C2         11.9249    9.5762   21.2212 C.ar    1  lig        -0.0999
     14 C3         11.2690   11.3697   23.1476 C.ar    1  lig        -0.1787
     15 C4         12.9466   10.1651   21.9414 C.ar    1  lig        -0.1787
     16 C5         10.5884    9.8457   21.4925 C.ar    1  lig        -0.1394
     17 C6         12.5884   11.0713   22.9325 C.ar    1  lig         0.1292
     18 C7          7.3326    7.9146   20.6365 C.2     1  lig         0.9321
     19 C8          9.4814    9.1724   20.7038 C.3     1  lig        -0.0452
     20 C9          8.2795    8.6947   21.5194 C.3     1  lig        -0.0740
     21 N1          8.7865    7.8779   22.6214 N.4     1  lig        -0.8252
     22 O1          7.1708    8.3886   19.5142 O.co2   1  lig        -0.7573
     23 O2          6.7225    6.8745   21.0172 O.co2   1  lig        -0.7573
     24 O3         13.4684   11.7003   23.6042 O.3     1  lig        -0.4913
@<TRIPOS>BOND
     1     1    12    1
     2     2    13    1
     3     3    14    1
     4     4    15    1
     5     5    19    1
     6     6    19    1
     7     7    20    1
     8     8    21    1
     9     9    21    1
    10    10    21    1
    11    11    24    1
    12    12    14   ar
    13    12    16   ar
    14    13    15   ar
    15    13    16   ar
    16    14    17   ar
    17    15    17   ar
    18    16    19    1
    19    17    24    1
    20    18    20    1
    21    18    22    1
    22    18    23    1
    23    19    20    1
    24    20    21    1
@<TRIPOS>SUBSTRUCTURE
     1 lig         1 TEMP              0 ****  ****    0 ROOT


########## Name:		ligand
########## HA_RMSDs:		13.9188
########## HA_RMSDh:		13.8602
########## HA_RMSDm:		12.2071
########## Cluster Size:	3
##########    Grid Score:          -22.866657
##########      Grid_vdw:          -17.453886
##########       Grid_es:           -5.412772
##########    Int_energy:            2.988580

@<TRIPOS>MOLECULE
ligand
 24 24 1 0 0
SMALL
No Charge or Current Charge


@<TRIPOS>ATOM
      1 H1         24.9196    8.0400   12.5913 H       1  lig         0.1340
      2 H2         25.3197    5.0190   15.5795 H       1  lig         0.1340
      3 H3         25.8985    9.6503   14.1397 H       1  lig         0.1475
      4 H4         26.2630    6.6511   17.1656 H       1  lig         0.1475
      5 H5         24.7843    5.6893   12.0232 H       1  lig         0.0877
      6 H6         24.8612    4.4258   13.2099 H       1  lig         0.0877
      7 H7         22.4710    6.3134   12.9041 H       1  lig         0.0966
      8 H8         22.7793    5.3240   15.1206 H       1  lig         0.4431
      9 H9         21.4810    4.5959   14.3875 H       1  lig         0.4431
     10 H10        22.9469    3.8070   14.4449 H       1  lig         0.4431
     11 H11        27.0800    8.7034   17.2508 H       1  lig         0.4214
     12 C1         25.2036    7.7243   13.5920 C.ar    1  lig        -0.0999
     13 C2         25.4429    6.0543   15.2702 C.ar    1  lig        -0.0999
     14 C3         25.7578    8.6239   14.4604 C.ar    1  lig        -0.1787
     15 C4         25.9666    6.9636   16.1693 C.ar    1  lig        -0.1787
     16 C5         25.0376    6.4351   13.9962 C.ar    1  lig        -0.1394
     17 C6         26.1076    8.2775   15.7386 C.ar    1  lig         0.1292
     18 C7         22.4608    4.4817   11.8591 C.2     1  lig         0.9321
     19 C8         24.4456    5.4250   13.0318 C.3     1  lig        -0.0452
     20 C9         22.9198    5.3264   13.0256 C.3     1  lig        -0.0740
     21 N1         22.5064    4.7505   14.3047 N.4     1  lig        -0.8252
     22 O1         23.3301    3.7591   11.3767 O.co2   1  lig        -0.7573
     23 O2         21.2897    4.5267   11.3846 O.co2   1  lig        -0.7573
     24 O3         26.6332    9.1660   16.4841 O.3     1  lig        -0.4913
@<TRIPOS>BOND
     1     1    12    1
     2     2    13    1
     3     3    14    1
     4     4    15    1
     5     5    19    1
     6     6    19    1
     7     7    20    1
     8     8    21    1
     9     9    21    1
    10    10    21    1
    11    11    24    1
    12    12    14   ar
    13    12    16   ar
    14    13    15   ar
    15    13    16   ar
    16    14    17   ar
    17    15    17   ar
    18    16    19    1
    19    17    24    1
    20    18    20    1
    21    18    22    1
    22    18    23    1
    23    19    20    1
    24    20    21    1
@<TRIPOS>SUBSTRUCTURE
     1 lig         1 TEMP              0 ****  ****    0 ROOT


########## Name:		ligand
########## HA_RMSDs:		13.0765
########## HA_RMSDh:		12.9883
########## HA_RMSDm:		10.7145
########## Cluster Size:	7
##########    Grid Score:          -22.865482
##########      Grid_vdw:          -20.291246
##########       Grid_es:           -2.574237
##########    Int_energy:            3.289156

@<TRIPOS>MOLECULE
ligand
 24 24 1 0 0
SMALL
No Charge or Current Charge


@<TRIPOS>ATOM
      1 H1          8.8304   10.0204   19.9541 H       1  lig         0.1340
      2 H2         10.6047    6.7842   22.0977 H       1  lig         0.1340
      3 H3          6.7889    8.7048   19.7295 H       1  lig         0.1475
      4 H4          8.5634    5.4310   21.8311 H       1  lig         0.1475
      5 H5         11.9703    8.6342   20.9833 H       1  lig         0.0877
      6 H6         11.1838   10.0666   20.4001 H       1  lig         0.0877
      7 H7         11.3118    9.2123   23.3367 H       1  lig         0.0966
      8 H8          9.2829   10.4458   22.7461 H       1  lig         0.4431
      9 H9         10.2751   11.4419   23.6272 H       1  lig         0.4431
     10 H10        10.1908   11.6133   21.9725 H       1  lig         0.4431
     11 H11         6.6090    5.4075   20.7705 H       1  lig         0.4214
     12 C1          8.7874    9.0146   20.3642 C.ar    1  lig        -0.0999
     13 C2          9.7540    7.2006   21.5633 C.ar    1  lig        -0.0999
     14 C3          7.6420    8.2767   20.2445 C.ar    1  lig        -0.1787
     15 C4          8.6160    6.4313   21.4133 C.ar    1  lig        -0.1787
     16 C5          9.8520    8.4762   21.0196 C.ar    1  lig        -0.1394
     17 C6          7.5502    6.9967   20.7232 C.ar    1  lig         0.1292
     18 C7         12.6562   10.6550   22.5895 C.2     1  lig         0.9321
     19 C8         11.1184    9.2961   21.1779 C.3     1  lig        -0.0452
     20 C9         11.3152    9.9593   22.5415 C.3     1  lig        -0.0740
     21 N1         10.2124   10.8986   22.7423 N.4     1  lig        -0.8252
     22 O1         13.5253   10.1409   21.8889 O.co2   1  lig        -0.7573
     23 O2         12.8911   11.6658   23.3119 O.co2   1  lig        -0.7573
     24 O3          6.4455    6.3780   20.5886 O.3     1  lig        -0.4913
@<TRIPOS>BOND
     1     1    12    1
     2     2    13    1
     3     3    14    1
     4     4    15    1
     5     5    19    1
     6     6    19    1
     7     7    20    1
     8     8    21    1
     9     9    21    1
    10    10    21    1
    11    11    24    1
    12    12    14   ar
    13    12    16   ar
    14    13    15   ar
    15    13    16   ar
    16    14    17   ar
    17    15    17   ar
    18    16    19    1
    19    17    24    1
    20    18    20    1
    21    18    22    1
    22    18    23    1
    23    19    20    1
    24    20    21    1
@<TRIPOS>SUBSTRUCTURE
     1 lig         1 TEMP              0 ****  ****    0 ROOT


########## Name:		ligand
########## HA_RMSDs:		12.9772
########## HA_RMSDh:		12.9260
########## HA_RMSDm:		10.7587
########## Cluster Size:	6
##########    Grid Score:          -22.853313
##########      Grid_vdw:          -20.625919
##########       Grid_es:           -2.227394
##########    Int_energy:            1.381550

@<TRIPOS>MOLECULE
ligand
 24 24 1 0 0
SMALL
No Charge or Current Charge


@<TRIPOS>ATOM
      1 H1         10.5884    7.1102   21.8791 H       1  lig         0.1340
      2 H2          8.3935    9.9669   19.5907 H       1  lig         0.1340
      3 H3          8.6365    5.6478   21.8585 H       1  lig         0.1475
      4 H4          6.4022    8.5165   19.6086 H       1  lig         0.1475
      5 H5         11.5899    9.0678   20.1305 H       1  lig         0.0877
      6 H6         10.6016   10.4898   20.2390 H       1  lig         0.0877
      7 H7         11.3213    9.0041   22.7907 H       1  lig         0.0966
      8 H8          9.6933   10.8305   22.8055 H       1  lig         0.4431
      9 H9         11.0668   11.3342   23.5882 H       1  lig         0.4431
     10 H10        10.7765   11.8325   22.0255 H       1  lig         0.4431
     11 H11         6.7585    5.3050   21.1856 H       1  lig         0.4214
     12 C1          9.6761    7.4328   21.3838 C.ar    1  lig        -0.0999
     13 C2          8.4360    9.0079   20.1016 C.ar    1  lig        -0.0999
     14 C3          8.5819    6.6125   21.3660 C.ar    1  lig        -0.1787
     15 C4          7.3119    8.2045   20.1118 C.ar    1  lig        -0.1787
     16 C5          9.6055    8.6386   20.7562 C.ar    1  lig        -0.1394
     17 C6          7.4038    6.9871   20.7761 C.ar    1  lig         0.1292
     18 C7         12.9022   10.1423   21.9830 C.2     1  lig         0.9321
     19 C8         10.8218    9.5450   20.7504 C.3     1  lig        -0.0452
     20 C9         11.4239    9.8588   22.1204 C.3     1  lig        -0.0740
     21 N1         10.7031   11.0063   22.6704 N.4     1  lig        -0.8252
     22 O1         13.6139    9.1412   21.9404 O.co2   1  lig        -0.7573
     23 O2         13.3873   11.3094   21.9464 O.co2   1  lig        -0.7573
     24 O3          6.4332    6.1630   20.7859 O.3     1  lig        -0.4913
@<TRIPOS>BOND
     1     1    12    1
     2     2    13    1
     3     3    14    1
     4     4    15    1
     5     5    19    1
     6     6    19    1
     7     7    20    1
     8     8    21    1
     9     9    21    1
    10    10    21    1
    11    11    24    1
    12    12    14   ar
    13    12    16   ar
    14    13    15   ar
    15    13    16   ar
    16    14    17   ar
    17    15    17   ar
    18    16    19    1
    19    17    24    1
    20    18    20    1
    21    18    22    1
    22    18    23    1
    23    19    20    1
    24    20    21    1
@<TRIPOS>SUBSTRUCTURE
     1 lig         1 TEMP              0 ****  ****    0 ROOT


########## Name:		ligand
########## HA_RMSDs:		13.8478
########## HA_RMSDh:		13.7971
########## HA_RMSDm:		11.6787
########## Cluster Size:	1
##########    Grid Score:          -22.814751
##########      Grid_vdw:          -20.902428
##########       Grid_es:           -1.912324
##########    Int_energy:            4.768515

@<TRIPOS>MOLECULE
ligand
 24 24 1 0 0
SMALL
No Charge or Current Charge


@<TRIPOS>ATOM
      1 H1         25.6274    4.8961   13.0025 H       1  lig         0.1340
      2 H2         25.1324    9.0526   13.8360 H       1  lig         0.1340
      3 H3         23.4358    4.8868   11.9320 H       1  lig         0.1475
      4 H4         22.8970    9.0388   12.8006 H       1  lig         0.1475
      5 H5         27.2575    5.9570   14.1572 H       1  lig         0.0877
      6 H6         27.5929    7.5454   13.5445 H       1  lig         0.0877
      7 H7         27.7251    7.0435   16.1525 H       1  lig         0.0966
      8 H8         25.4193    6.2333   16.2696 H       1  lig         0.4431
      9 H9         25.5468    7.6129   17.1825 H       1  lig         0.4431
     10 H10        24.8550    7.6848   15.6690 H       1  lig         0.4431
     11 H11        21.8700    5.9891   11.2240 H       1  lig         0.4214
     12 C1         25.0372    5.8085   12.9706 C.ar    1  lig        -0.0999
     13 C2         24.7431    8.1270   13.4184 C.ar    1  lig        -0.0999
     14 C3         23.8102    5.8074   12.3662 C.ar    1  lig        -0.1787
     15 C4         23.4855    8.1280   12.8458 C.ar    1  lig        -0.1787
     16 C5         25.5066    6.9687   13.5058 C.ar    1  lig        -0.1394
     17 C6         23.0212    6.9262   12.3242 C.ar    1  lig         0.1292
     18 C7         27.2253    9.0073   15.5689 C.2     1  lig         0.9321
     19 C8         26.8764    6.9849   14.1572 C.3     1  lig        -0.0452
     20 C9         26.9267    7.5256   15.5866 C.3     1  lig        -0.0740
     21 N1         25.6366    7.2426   16.2145 N.4     1  lig        -0.8252
     22 O1         28.3627    9.2962   15.2035 O.co2   1  lig        -0.7573
     23 O2         26.3945    9.8898   15.9288 O.co2   1  lig        -0.7573
     24 O3         21.8976    6.8524   11.7297 O.3     1  lig        -0.4913
@<TRIPOS>BOND
     1     1    12    1
     2     2    13    1
     3     3    14    1
     4     4    15    1
     5     5    19    1
     6     6    19    1
     7     7    20    1
     8     8    21    1
     9     9    21    1
    10    10    21    1
    11    11    24    1
    12    12    14   ar
    13    12    16   ar
    14    13    15   ar
    15    13    16   ar
    16    14    17   ar
    17    15    17   ar
    18    16    19    1
    19    17    24    1
    20    18    20    1
    21    18    22    1
    22    18    23    1
    23    19    20    1
    24    20    21    1
@<TRIPOS>SUBSTRUCTURE
     1 lig         1 TEMP              0 ****  ****    0 ROOT


########## Name:		ligand
########## HA_RMSDs:		12.8482
########## HA_RMSDh:		12.7848
########## HA_RMSDm:		10.7086
########## Cluster Size:	8
##########    Grid Score:          -22.812069
##########      Grid_vdw:          -18.315142
##########       Grid_es:           -4.496927
##########    Int_energy:            1.032265

@<TRIPOS>MOLECULE
ligand
 24 24 1 0 0
SMALL
No Charge or Current Charge


@<TRIPOS>ATOM
      1 H1          8.4014    9.5340   24.0459 H       1  lig         0.1340
      2 H2         11.9332   10.7262   21.9672 H       1  lig         0.1340
      3 H3          7.6009    8.4708   22.0020 H       1  lig         0.1475
      4 H4         11.1083    9.6976   19.8861 H       1  lig         0.1475
      5 H5         10.6525   10.1190   25.2029 H       1  lig         0.0877
      6 H6         11.7873   11.0904   24.3201 H       1  lig         0.0877
      7 H7          8.9012   11.9885   24.7764 H       1  lig         0.0966
      8 H8         10.1618   13.0527   22.9694 H       1  lig         0.4431
      9 H9          9.9854   14.1410   24.2093 H       1  lig         0.4431
     10 H10        11.4372   13.3506   24.0041 H       1  lig         0.4431
     11 H11         9.3070    8.7533   18.9991 H       1  lig         0.4214
     12 C1          9.0010    9.5826   23.1404 C.ar    1  lig        -0.0999
     13 C2         10.9653   10.2305   21.9638 C.ar    1  lig        -0.0999
     14 C3          8.5570    8.9826   21.9943 C.ar    1  lig        -0.1787
     15 C4         10.5084    9.6624   20.7899 C.ar    1  lig        -0.1787
     16 C5         10.2060   10.2156   23.1281 C.ar    1  lig        -0.1394
     17 C6          9.2664    9.0393   20.8240 C.ar    1  lig         0.1292
     18 C7         10.2994   12.4296   26.2921 C.2     1  lig         0.9321
     19 C8         10.7173   10.8635   24.4008 C.3     1  lig        -0.0452
     20 C9          9.9811   12.1277   24.8456 C.3     1  lig        -0.0740
     21 N1         10.3957   13.2174   23.9629 N.4     1  lig        -0.8252
     22 O1          9.4116   12.1263   27.0861 O.co2   1  lig        -0.7573
     23 O2         11.3740   12.9794   26.6688 O.co2   1  lig        -0.7573
     24 O3          8.7965    8.4427   19.8020 O.3     1  lig        -0.4913
@<TRIPOS>BOND
     1     1    12    1
     2     2    13    1
     3     3    14    1
     4     4    15    1
     5     5    19    1
     6     6    19    1
     7     7    20    1
     8     8    21    1
     9     9    21    1
    10    10    21    1
    11    11    24    1
    12    12    14   ar
    13    12    16   ar
    14    13    15   ar
    15    13    16   ar
    16    14    17   ar
    17    15    17   ar
    18    16    19    1
    19    17    24    1
    20    18    20    1
    21    18    22    1
    22    18    23    1
    23    19    20    1
    24    20    21    1
@<TRIPOS>SUBSTRUCTURE
     1 lig         1 TEMP              0 ****  ****    0 ROOT


########## Name:		ligand
########## HA_RMSDs:		13.2123
########## HA_RMSDh:		13.1836
########## HA_RMSDm:		11.2545
########## Cluster Size:	10
##########    Grid Score:          -22.801739
##########      Grid_vdw:          -20.104099
##########       Grid_es:           -2.697639
##########    Int_energy:            4.068542

@<TRIPOS>MOLECULE
ligand
 24 24 1 0 0
SMALL
No Charge or Current Charge


@<TRIPOS>ATOM
      1 H1          8.9145    8.7035   23.9472 H       1  lig         0.1340
      2 H2          9.6832    9.7504   19.8817 H       1  lig         0.1340
      3 H3          7.0528    7.3162   23.2001 H       1  lig         0.1475
      4 H4          7.7734    8.3907   19.1246 H       1  lig         0.1475
      5 H5         11.4467    9.5278   22.4997 H       1  lig         0.0877
      6 H6         10.8417   10.9161   21.6528 H       1  lig         0.0877
      7 H7         10.3833   10.2037   24.5816 H       1  lig         0.0966
      8 H8          8.2915   10.9745   23.5732 H       1  lig         0.4431
      9 H9          8.8916   12.1794   24.5432 H       1  lig         0.4431
     10 H10         9.0754   12.2805   22.8908 H       1  lig         0.4431
     11 H11         6.0711    6.4685   21.6265 H       1  lig         0.4214
     12 C1          8.6714    8.6488   22.8891 C.ar    1  lig        -0.0999
     13 C2          9.0864    9.2130   20.6149 C.ar    1  lig        -0.0999
     14 C3          7.6314    7.8673   22.4669 C.ar    1  lig        -0.1787
     15 C4          8.0132    8.4585   20.1810 C.ar    1  lig        -0.1787
     16 C5          9.4003    9.3311   21.9640 C.ar    1  lig        -0.1394
     17 C6          7.2731    7.7873   21.1472 C.ar    1  lig         0.1292
     18 C7         11.5287   11.8696   23.9817 C.2     1  lig         0.9321
     19 C8         10.5703   10.1816   22.4208 C.3     1  lig        -0.0452
     20 C9         10.3826   10.9113   23.7513 C.3     1  lig        -0.0740
     21 N1          9.0983   11.6087   23.6984 N.4     1  lig        -0.8252
     22 O1         12.5854   11.5426   23.4459 O.co2   1  lig        -0.7573
     23 O2         11.4338   12.9109   24.6926 O.co2   1  lig        -0.7573
     24 O3          6.3035    7.0260   20.8285 O.3     1  lig        -0.4913
@<TRIPOS>BOND
     1     1    12    1
     2     2    13    1
     3     3    14    1
     4     4    15    1
     5     5    19    1
     6     6    19    1
     7     7    20    1
     8     8    21    1
     9     9    21    1
    10    10    21    1
    11    11    24    1
    12    12    14   ar
    13    12    16   ar
    14    13    15   ar
    15    13    16   ar
    16    14    17   ar
    17    15    17   ar
    18    16    19    1
    19    17    24    1
    20    18    20    1
    21    18    22    1
    22    18    23    1
    23    19    20    1
    24    20    21    1
@<TRIPOS>SUBSTRUCTURE
     1 lig         1 TEMP              0 ****  ****    0 ROOT


########## Name:		ligand
########## HA_RMSDs:		13.0817
########## HA_RMSDh:		13.0093
########## HA_RMSDm:		10.9773
########## Cluster Size:	6
##########    Grid Score:          -22.738985
##########      Grid_vdw:          -19.198526
##########       Grid_es:           -3.540459
##########    Int_energy:            4.008698

@<TRIPOS>MOLECULE
ligand
 24 24 1 0 0
SMALL
No Charge or Current Charge


@<TRIPOS>ATOM
      1 H1         10.4161    9.6974   20.3416 H       1  lig         0.1340
      2 H2          8.5906    9.4572   24.1919 H       1  lig         0.1340
      3 H3          8.5628    8.4056   19.4222 H       1  lig         0.1475
      4 H4          6.7411    8.1096   23.2794 H       1  lig         0.1475
      5 H5         11.5741    9.7618   23.1766 H       1  lig         0.0877
      6 H6         11.2150   11.1007   22.1330 H       1  lig         0.0877
      7 H7         10.0068   10.6986   24.9170 H       1  lig         0.0966
      8 H8          8.5658   11.9008   23.3468 H       1  lig         0.4431
      9 H9          9.1765   12.9832   24.4461 H       1  lig         0.4431
     10 H10         9.8310   12.9009   22.9166 H       1  lig         0.4431
     11 H11         6.0459    7.1175   21.4434 H       1  lig         0.4214
     12 C1          9.6212    9.3505   20.9969 C.ar    1  lig        -0.0999
     13 C2          8.5818    9.2103   23.1329 C.ar    1  lig        -0.0999
     14 C3          8.5779    8.6306   20.4830 C.ar    1  lig        -0.1787
     15 C4          7.5436    8.4484   22.6319 C.ar    1  lig        -0.1787
     16 C5          9.6307    9.6383   22.3272 C.ar    1  lig        -0.1394
     17 C6          7.5675    8.1518   21.2742 C.ar    1  lig         0.1292
     18 C7         11.6797   11.9583   24.6691 C.2     1  lig         0.9321
     19 C8         10.7716   10.4563   22.9017 C.3     1  lig        -0.0452
     20 C9         10.4275   11.3137   24.1202 C.3     1  lig        -0.0740
     21 N1          9.4467   12.3128   23.6979 N.4     1  lig        -0.8252
     22 O1         12.5616   12.1557   23.8361 O.co2   1  lig        -0.7573
     23 O2         11.8364   12.2478   25.8900 O.co2   1  lig        -0.7573
     24 O3          6.6215    7.5031   20.7212 O.3     1  lig        -0.4913
@<TRIPOS>BOND
     1     1    12    1
     2     2    13    1
     3     3    14    1
     4     4    15    1
     5     5    19    1
     6     6    19    1
     7     7    20    1
     8     8    21    1
     9     9    21    1
    10    10    21    1
    11    11    24    1
    12    12    14   ar
    13    12    16   ar
    14    13    15   ar
    15    13    16   ar
    16    14    17   ar
    17    15    17   ar
    18    16    19    1
    19    17    24    1
    20    18    20    1
    21    18    22    1
    22    18    23    1
    23    19    20    1
    24    20    21    1
@<TRIPOS>SUBSTRUCTURE
     1 lig         1 TEMP              0 ****  ****    0 ROOT


########## Name:		ligand
########## HA_RMSDs:		13.4289
########## HA_RMSDh:		13.3849
########## HA_RMSDm:		11.1086
########## Cluster Size:	9
##########    Grid Score:          -22.736273
##########      Grid_vdw:          -19.526169
##########       Grid_es:           -3.210104
##########    Int_energy:            2.410709

@<TRIPOS>MOLECULE
ligand
 24 24 1 0 0
SMALL
No Charge or Current Charge


@<TRIPOS>ATOM
      1 H1          8.4235    8.5081   24.1985 H       1  lig         0.1340
      2 H2         10.0879    9.0615   20.3076 H       1  lig         0.1340
      3 H3          6.5583    7.3030   23.1898 H       1  lig         0.1475
      4 H4          8.1818    7.8888   19.2776 H       1  lig         0.1475
      5 H5         10.4356    9.5317   24.0266 H       1  lig         0.0877
      6 H6         11.4768    9.1100   22.7043 H       1  lig         0.0877
      7 H7          9.8628   11.3907   21.8875 H       1  lig         0.0966
      8 H8         12.0635   10.7265   21.0493 H       1  lig         0.4431
      9 H9         12.1694   12.2631   21.6664 H       1  lig         0.4431
     10 H10        12.7372   10.9745   22.5561 H       1  lig         0.4431
     11 H11         5.8225    6.3869   21.5022 H       1  lig         0.4214
     12 C1          8.3795    8.3850   23.1194 C.ar    1  lig        -0.0999
     13 C2          9.2929    8.6754   20.9413 C.ar    1  lig        -0.0999
     14 C3          7.3375    7.7050   22.5515 C.ar    1  lig        -0.1787
     15 C4          8.2248    8.0250   20.3535 C.ar    1  lig        -0.1787
     16 C5          9.3598    8.8794   22.3147 C.ar    1  lig        -0.1394
     17 C6          7.2275    7.5469   21.1954 C.ar    1  lig         0.1292
     18 C7         10.5322   11.9483   23.8079 C.2     1  lig         0.9321
     19 C8         10.5313    9.6145   22.9377 C.3     1  lig        -0.0452
     20 C9         10.6613   11.0926   22.5686 C.3     1  lig        -0.0740
     21 N1         11.9584   11.2762   21.9187 N.4     1  lig        -0.8252
     22 O1          9.5267   11.7286   24.4797 O.co2   1  lig        -0.7573
     23 O2         11.3654   12.8449   24.1253 O.co2   1  lig        -0.7573
     24 O3          6.2373    6.8876   20.7413 O.3     1  lig        -0.4913
@<TRIPOS>BOND
     1     1    12    1
     2     2    13    1
     3     3    14    1
     4     4    15    1
     5     5    19    1
     6     6    19    1
     7     7    20    1
     8     8    21    1
     9     9    21    1
    10    10    21    1
    11    11    24    1
    12    12    14   ar
    13    12    16   ar
    14    13    15   ar
    15    13    16   ar
    16    14    17   ar
    17    15    17   ar
    18    16    19    1
    19    17    24    1
    20    18    20    1
    21    18    22    1
    22    18    23    1
    23    19    20    1
    24    20    21    1
@<TRIPOS>SUBSTRUCTURE
     1 lig         1 TEMP              0 ****  ****    0 ROOT


########## Name:		ligand
########## HA_RMSDs:		13.6070
########## HA_RMSDh:		13.6070
########## HA_RMSDm:		11.7634
########## Cluster Size:	2
##########    Grid Score:          -22.673841
##########      Grid_vdw:          -18.673908
##########       Grid_es:           -3.999933
##########    Int_energy:            1.854720

@<TRIPOS>MOLECULE
ligand
 24 24 1 0 0
SMALL
No Charge or Current Charge


@<TRIPOS>ATOM
      1 H1          8.0194    9.2762   23.2966 H       1  lig         0.1340
      2 H2          9.2866    8.0787   19.4010 H       1  lig         0.1340
      3 H3         10.0000   10.6892   23.4671 H       1  lig         0.1475
      4 H4         11.3145    9.4651   19.5867 H       1  lig         0.1475
      5 H5          6.7155    7.8346   22.1462 H       1  lig         0.0877
      6 H6          6.6471    8.0691   20.4284 H       1  lig         0.0877
      7 H7          8.0630    6.0397   20.0663 H       1  lig         0.0966
      8 H8          5.6295    5.8629   20.2502 H       1  lig         0.4431
      9 H9          6.3146    4.5052   20.9139 H       1  lig         0.4431
     10 H10         5.7432    5.7129   21.9087 H       1  lig         0.4431
     11 H11        11.9099   11.4349   20.8752 H       1  lig         0.4214
     12 C1          8.7361    9.3036   22.4797 C.ar    1  lig        -0.0999
     13 C2          9.4580    8.6555   20.3069 C.ar    1  lig        -0.0999
     14 C3          9.8448   10.0992   22.5704 C.ar    1  lig        -0.1787
     15 C4         10.6016    9.4248   20.4041 C.ar    1  lig        -0.1787
     16 C5          8.5411    8.5723   21.3484 C.ar    1  lig        -0.1394
     17 C6         10.7870   10.1466   21.5774 C.ar    1  lig         0.1292
     18 C7          8.4519    5.6774   22.1070 C.2     1  lig         0.9321
     19 C8          7.3022    7.7052   21.2292 C.3     1  lig        -0.0452
     20 C9          7.5534    6.2121   21.0154 C.3     1  lig        -0.0740
     21 N1          6.2548    5.5395   21.0075 N.4     1  lig        -0.8252
     22 O1          9.6087    5.4560   21.7556 O.co2   1  lig        -0.7573
     23 O2          8.0536    5.4404   23.2834 O.co2   1  lig        -0.7573
     24 O3         11.7848   10.9235   21.7263 O.3     1  lig        -0.4913
@<TRIPOS>BOND
     1     1    12    1
     2     2    13    1
     3     3    14    1
     4     4    15    1
     5     5    19    1
     6     6    19    1
     7     7    20    1
     8     8    21    1
     9     9    21    1
    10    10    21    1
    11    11    24    1
    12    12    14   ar
    13    12    16   ar
    14    13    15   ar
    15    13    16   ar
    16    14    17   ar
    17    15    17   ar
    18    16    19    1
    19    17    24    1
    20    18    20    1
    21    18    22    1
    22    18    23    1
    23    19    20    1
    24    20    21    1
@<TRIPOS>SUBSTRUCTURE
     1 lig         1 TEMP              0 ****  ****    0 ROOT


########## Name:		ligand
########## HA_RMSDs:		12.6597
########## HA_RMSDh:		12.5959
########## HA_RMSDm:		10.7755
########## Cluster Size:	4
##########    Grid Score:          -22.645191
##########      Grid_vdw:          -15.394290
##########       Grid_es:           -7.250902
##########    Int_energy:            2.671235

@<TRIPOS>MOLECULE
ligand
 24 24 1 0 0
SMALL
No Charge or Current Charge


@<TRIPOS>ATOM
      1 H1          8.9161   10.2783   23.7566 H       1  lig         0.1340
      2 H2         10.8793    7.3318   21.3734 H       1  lig         0.1340
      3 H3          6.7729    9.4943   22.8959 H       1  lig         0.1475
      4 H4          8.7216    6.5681   20.4620 H       1  lig         0.1475
      5 H5         11.1733    9.8810   24.0811 H       1  lig         0.0877
      6 H6         11.9895    8.4885   23.4444 H       1  lig         0.0877
      7 H7         12.4068   11.1930   22.7073 H       1  lig         0.0966
      8 H8         10.4881   10.9583   21.2073 H       1  lig         0.4431
      9 H9         11.8705   11.0509   20.2944 H       1  lig         0.4431
     10 H10        11.1449    9.5731   20.5473 H       1  lig         0.4431
     11 H11         5.7778    8.3010   21.5902 H       1  lig         0.4214
     12 C1          8.8879    9.4694   23.0310 C.ar    1  lig        -0.0999
     13 C2          9.9610    7.8144   21.6997 C.ar    1  lig        -0.0999
     14 C3          7.6872    9.0241   22.5508 C.ar    1  lig        -0.1787
     15 C4          8.7564    7.3834   21.1777 C.ar    1  lig        -0.1787
     16 C5         10.0321    8.8696   22.6018 C.ar    1  lig        -0.1394
     17 C6          7.6045    8.0251   21.6173 C.ar    1  lig         0.1292
     18 C7         13.5045    9.5874   21.8924 C.2     1  lig         0.9321
     19 C8         11.3669    9.3410   23.1469 C.3     1  lig        -0.0452
     20 C9         12.1826   10.2430   22.2201 C.3     1  lig        -0.0740
     21 N1         11.3856   10.4814   21.0173 N.4     1  lig        -0.8252
     22 O1         14.4224    9.8748   22.6576 O.co2   1  lig        -0.7573
     23 O2         13.6776    8.8280   20.8964 O.co2   1  lig        -0.7573
     24 O3          6.4501    7.6532   21.2295 O.3     1  lig        -0.4913
@<TRIPOS>BOND
     1     1    12    1
     2     2    13    1
     3     3    14    1
     4     4    15    1
     5     5    19    1
     6     6    19    1
     7     7    20    1
     8     8    21    1
     9     9    21    1
    10    10    21    1
    11    11    24    1
    12    12    14   ar
    13    12    16   ar
    14    13    15   ar
    15    13    16   ar
    16    14    17   ar
    17    15    17   ar
    18    16    19    1
    19    17    24    1
    20    18    20    1
    21    18    22    1
    22    18    23    1
    23    19    20    1
    24    20    21    1
@<TRIPOS>SUBSTRUCTURE
     1 lig         1 TEMP              0 ****  ****    0 ROOT


########## Name:		ligand
########## HA_RMSDs:		13.0162
########## HA_RMSDh:		12.9491
########## HA_RMSDm:		11.2940
########## Cluster Size:	2
##########    Grid Score:          -22.644949
##########      Grid_vdw:          -19.044992
##########       Grid_es:           -3.599957
##########    Int_energy:            2.715098

@<TRIPOS>MOLECULE
ligand
 24 24 1 0 0
SMALL
No Charge or Current Charge


@<TRIPOS>ATOM
      1 H1         11.3543   10.7581   22.3411 H       1  lig         0.1340
      2 H2          8.3271    8.4070   24.2185 H       1  lig         0.1340
      3 H3         10.6437    9.8811   20.1790 H       1  lig         0.1475
      4 H4          7.6370    7.4793   22.0432 H       1  lig         0.1475
      5 H5         10.1511    9.3973   25.5140 H       1  lig         0.0877
      6 H6         11.4094   10.3464   24.7884 H       1  lig         0.0877
      7 H7          9.3143   11.3827   26.2531 H       1  lig         0.0966
      8 H8          7.7593   10.8513   24.4402 H       1  lig         0.4431
      9 H9          7.9045   12.5004   24.5521 H       1  lig         0.4431
     10 H10         8.7130   11.6795   23.3491 H       1  lig         0.4431
     11 H11         8.9303    8.9840   19.1700 H       1  lig         0.4214
     12 C1         10.5433   10.0360   22.2905 C.ar    1  lig        -0.0999
     13 C2          8.8441    8.7225   23.3153 C.ar    1  lig        -0.0999
     14 C3         10.1391    9.5468   21.0789 C.ar    1  lig        -0.1787
     15 C4          8.4540    8.1914   22.1007 C.ar    1  lig        -0.1787
     16 C5          9.9006    9.6203   23.4161 C.ar    1  lig        -0.1394
     17 C6          9.1391    8.6173   20.9688 C.ar    1  lig         0.1292
     18 C7         10.5597   12.6325   25.0981 C.2     1  lig         0.9321
     19 C8         10.3263   10.1755   24.7620 C.3     1  lig        -0.0452
     20 C9          9.6180   11.4552   25.2077 C.3     1  lig        -0.0740
     21 N1          8.4376   11.6276   24.3618 N.4     1  lig        -0.8252
     22 O1         10.5352   13.2087   24.0127 O.co2   1  lig        -0.7573
     23 O2         11.3400   12.9893   26.0268 O.co2   1  lig        -0.7573
     24 O3          8.8070    8.2205   19.8053 O.3     1  lig        -0.4913
@<TRIPOS>BOND
     1     1    12    1
     2     2    13    1
     3     3    14    1
     4     4    15    1
     5     5    19    1
     6     6    19    1
     7     7    20    1
     8     8    21    1
     9     9    21    1
    10    10    21    1
    11    11    24    1
    12    12    14   ar
    13    12    16   ar
    14    13    15   ar
    15    13    16   ar
    16    14    17   ar
    17    15    17   ar
    18    16    19    1
    19    17    24    1
    20    18    20    1
    21    18    22    1
    22    18    23    1
    23    19    20    1
    24    20    21    1
@<TRIPOS>SUBSTRUCTURE
     1 lig         1 TEMP              0 ****  ****    0 ROOT


########## Name:		ligand
########## HA_RMSDs:		14.0202
########## HA_RMSDh:		13.9694
########## HA_RMSDm:		11.9367
########## Cluster Size:	1
##########    Grid Score:          -22.614685
##########      Grid_vdw:          -19.759956
##########       Grid_es:           -2.854728
##########    Int_energy:            1.195864

@<TRIPOS>MOLECULE
ligand
 24 24 1 0 0
SMALL
No Charge or Current Charge


@<TRIPOS>ATOM
      1 H1         25.2482    5.0334   14.0413 H       1  lig         0.1340
      2 H2         24.1373    8.7141   12.1883 H       1  lig         0.1340
      3 H3         23.1396    4.0622   13.2932 H       1  lig         0.1475
      4 H4         21.9841    7.7546   11.4726 H       1  lig         0.1475
      5 H5         26.8223    6.7195   13.8391 H       1  lig         0.0877
      6 H6         26.6047    8.0986   12.8088 H       1  lig         0.0877
      7 H7         25.0393    8.7810   15.0367 H       1  lig         0.0966
      8 H8         26.6170   10.1695   13.7838 H       1  lig         0.4431
      9 H9         26.9794   10.2758   15.3994 H       1  lig         0.4431
     10 H10        27.9041    9.3089   14.4071 H       1  lig         0.4431
     11 H11        20.6654    5.3827   12.7128 H       1  lig         0.4214
     12 C1         24.5396    5.6419   13.4851 C.ar    1  lig        -0.0999
     13 C2         23.9031    7.6821   12.4386 C.ar    1  lig        -0.0999
     14 C3         23.3589    5.0983   13.0597 C.ar    1  lig        -0.1787
     15 C4         22.6901    7.1551   12.0385 C.ar    1  lig        -0.1787
     16 C5         24.8142    6.9401   13.1814 C.ar    1  lig        -0.1394
     17 C6         22.4256    5.8335   12.3781 C.ar    1  lig         0.1292
     18 C7         26.5093    7.6926   16.0862 C.2     1  lig         0.9321
     19 C8         26.1317    7.5445   13.6286 C.3     1  lig        -0.0452
     20 C9         26.0639    8.4519   14.8575 C.3     1  lig        -0.0740
     21 N1         26.9169    9.6118   14.6011 N.4     1  lig        -0.8252
     22 O1         25.6275    7.0269   16.6246 O.co2   1  lig        -0.7573
     23 O2         27.6822    7.7521   16.5548 O.co2   1  lig        -0.7573
     24 O3         21.3566    5.2539   12.0005 O.3     1  lig        -0.4913
@<TRIPOS>BOND
     1     1    12    1
     2     2    13    1
     3     3    14    1
     4     4    15    1
     5     5    19    1
     6     6    19    1
     7     7    20    1
     8     8    21    1
     9     9    21    1
    10    10    21    1
    11    11    24    1
    12    12    14   ar
    13    12    16   ar
    14    13    15   ar
    15    13    16   ar
    16    14    17   ar
    17    15    17   ar
    18    16    19    1
    19    17    24    1
    20    18    20    1
    21    18    22    1
    22    18    23    1
    23    19    20    1
    24    20    21    1
@<TRIPOS>SUBSTRUCTURE
     1 lig         1 TEMP              0 ****  ****    0 ROOT


########## Name:		ligand
########## HA_RMSDs:		14.6647
########## HA_RMSDh:		14.5780
########## HA_RMSDm:		12.1631
########## Cluster Size:	1
##########    Grid Score:          -22.561285
##########      Grid_vdw:          -15.822892
##########       Grid_es:           -6.738393
##########    Int_energy:            5.010960

@<TRIPOS>MOLECULE
ligand
 24 24 1 0 0
SMALL
No Charge or Current Charge


@<TRIPOS>ATOM
      1 H1         26.4114    5.6144   12.3072 H       1  lig         0.1340
      2 H2         24.6892    6.6210   16.0803 H       1  lig         0.1340
      3 H3         24.2103    4.9048   11.5326 H       1  lig         0.1475
      4 H4         22.4727    5.8594   15.3212 H       1  lig         0.1475
      5 H5         26.9846    6.7766   15.8100 H       1  lig         0.0877
      6 H6         27.7952    5.7967   14.6296 H       1  lig         0.0877
      7 H7         27.2709    7.9248   13.0267 H       1  lig         0.0966
      8 H8         29.4491    6.9676   13.5976 H       1  lig         0.4431
      9 H9         29.5454    8.6198   13.7148 H       1  lig         0.4431
     10 H10        29.4035    7.7005   15.0965 H       1  lig         0.4431
     11 H11        21.4001    5.1006   13.5780 H       1  lig         0.4214
     12 C1         25.5586    5.6674   12.9792 C.ar    1  lig        -0.0999
     13 C2         24.5758    6.2285   15.0725 C.ar    1  lig        -0.0999
     14 C3         24.3221    5.2752   12.5457 C.ar    1  lig        -0.1787
     15 C4         23.3300    5.7976   14.6583 C.ar    1  lig        -0.1787
     16 C5         25.6920    6.1403   14.2486 C.ar    1  lig        -0.1394
     17 C6         23.2244    5.3008   13.3645 C.ar    1  lig         0.1292
     18 C7         27.0918    9.0899   14.7752 C.2     1  lig         0.9321
     19 C8         27.0550    6.5997   14.7304 C.3     1  lig        -0.0452
     20 C9         27.6063    7.8600   14.0628 C.3     1  lig        -0.0740
     21 N1         29.0661    7.7830   14.1048 N.4     1  lig        -0.8252
     22 O1         26.1215    8.8918   15.5032 O.co2   1  lig        -0.7573
     23 O2         27.5874   10.2429   14.6208 O.co2   1  lig        -0.7573
     24 O3         22.1030    4.9353   12.8849 O.3     1  lig        -0.4913
@<TRIPOS>BOND
     1     1    12    1
     2     2    13    1
     3     3    14    1
     4     4    15    1
     5     5    19    1
     6     6    19    1
     7     7    20    1
     8     8    21    1
     9     9    21    1
    10    10    21    1
    11    11    24    1
    12    12    14   ar
    13    12    16   ar
    14    13    15   ar
    15    13    16   ar
    16    14    17   ar
    17    15    17   ar
    18    16    19    1
    19    17    24    1
    20    18    20    1
    21    18    22    1
    22    18    23    1
    23    19    20    1
    24    20    21    1
@<TRIPOS>SUBSTRUCTURE
     1 lig         1 TEMP              0 ****  ****    0 ROOT


########## Name:		ligand
########## HA_RMSDs:		14.3720
########## HA_RMSDh:		14.3059
########## HA_RMSDm:		12.0086
########## Cluster Size:	2
##########    Grid Score:          -22.556475
##########      Grid_vdw:          -18.169962
##########       Grid_es:           -4.386513
##########    Int_energy:            3.504440

@<TRIPOS>MOLECULE
ligand
 24 24 1 0 0
SMALL
No Charge or Current Charge


@<TRIPOS>ATOM
      1 H1          8.6823    6.7616   19.6740 H       1  lig         0.1340
      2 H2          7.6207    9.5177   22.7549 H       1  lig         0.1340
      3 H3          6.8246    5.3369   20.3582 H       1  lig         0.1475
      4 H4          5.7734    8.0596   23.4833 H       1  lig         0.1475
      5 H5         10.0887    8.5244   20.1125 H       1  lig         0.0877
      6 H6          9.0618    9.9230   20.1060 H       1  lig         0.0877
      7 H7          9.6356   10.3846   22.4998 H       1  lig         0.0966
      8 H8         11.0021   11.2727   20.6748 H       1  lig         0.4431
      9 H9         11.9912   10.9234   21.9604 H       1  lig         0.4431
     10 H10        11.9268    9.8832   20.6610 H       1  lig         0.4431
     11 H11         4.9496    5.9997   23.1821 H       1  lig         0.4214
     12 C1          8.0570    7.0544   20.5136 C.ar    1  lig        -0.0999
     13 C2          7.4426    8.5805   22.2329 C.ar    1  lig        -0.0999
     14 C3          7.0112    6.2601   20.8959 C.ar    1  lig        -0.1787
     15 C4          6.4082    7.7664   22.6532 C.ar    1  lig        -0.1787
     16 C5          8.2813    8.2166   21.1857 C.ar    1  lig        -0.1394
     17 C6          6.2125    6.5760   21.9628 C.ar    1  lig         0.1292
     18 C7         10.7822    8.6382   22.7864 C.2     1  lig         0.9321
     19 C8          9.4242    9.1154   20.7536 C.3     1  lig        -0.0452
     20 C9         10.2520    9.7284   21.8836 C.3     1  lig        -0.0740
     21 N1         11.3353   10.4986   21.2737 N.4     1  lig        -0.8252
     22 O1         11.1081    7.6054   22.2053 O.co2   1  lig        -0.7573
     23 O2         10.8603    8.7511   24.0434 O.co2   1  lig        -0.7573
     24 O3          5.2480    5.7954   22.2489 O.3     1  lig        -0.4913
@<TRIPOS>BOND
     1     1    12    1
     2     2    13    1
     3     3    14    1
     4     4    15    1
     5     5    19    1
     6     6    19    1
     7     7    20    1
     8     8    21    1
     9     9    21    1
    10    10    21    1
    11    11    24    1
    12    12    14   ar
    13    12    16   ar
    14    13    15   ar
    15    13    16   ar
    16    14    17   ar
    17    15    17   ar
    18    16    19    1
    19    17    24    1
    20    18    20    1
    21    18    22    1
    22    18    23    1
    23    19    20    1
    24    20    21    1
@<TRIPOS>SUBSTRUCTURE
     1 lig         1 TEMP              0 ****  ****    0 ROOT


########## Name:		ligand
########## HA_RMSDs:		12.7283
########## HA_RMSDh:		12.6485
########## HA_RMSDm:		11.0233
########## Cluster Size:	2
##########    Grid Score:          -22.542189
##########      Grid_vdw:          -16.797829
##########       Grid_es:           -5.744359
##########    Int_energy:            2.867012

@<TRIPOS>MOLECULE
ligand
 24 24 1 0 0
SMALL
No Charge or Current Charge


@<TRIPOS>ATOM
      1 H1          7.7504    8.9176   23.8606 H       1  lig         0.1340
      2 H2         11.4419    9.9418   21.9792 H       1  lig         0.1340
      3 H3          6.8410    8.3307   21.6749 H       1  lig         0.1475
      4 H4         10.5136    9.3983   19.7629 H       1  lig         0.1475
      5 H5          9.5513    9.4245   25.1752 H       1  lig         0.0877
      6 H6         11.1760    9.3223   24.5748 H       1  lig         0.0877
      7 H7         10.1238   11.5728   25.7098 H       1  lig         0.0966
      8 H8          8.5713   11.8624   23.8409 H       1  lig         0.4431
      9 H9          9.6738   13.1021   23.8154 H       1  lig         0.4431
     10 H10         9.8378   11.8287   22.7543 H       1  lig         0.4431
     11 H11         8.6673    8.7793   18.7495 H       1  lig         0.4214
     12 C1          8.3639    9.0335   22.9707 C.ar    1  lig        -0.0999
     13 C2         10.4153    9.5917   21.9016 C.ar    1  lig        -0.0999
     14 C3          7.8583    8.7000   21.7444 C.ar    1  lig        -0.1787
     15 C4          9.9016    9.2958   20.6534 C.ar    1  lig        -0.1787
     16 C5          9.6444    9.4876   23.0537 C.ar    1  lig        -0.1394
     17 C6          8.5855    8.8529   20.5938 C.ar    1  lig         0.1292
     18 C7         11.8767   11.6941   24.5438 C.2     1  lig         0.9321
     19 C8         10.2215    9.8374   24.4122 C.3     1  lig        -0.0452
     20 C9         10.4171   11.3287   24.6877 C.3     1  lig        -0.0740
     21 N1          9.5798   12.0686   23.7442 N.4     1  lig        -0.8252
     22 O1         12.5138   11.6819   25.5947 O.co2   1  lig        -0.7573
     23 O2         12.4079   12.0204   23.4437 O.co2   1  lig        -0.7573
     24 O3          8.0529    8.5056   19.4906 O.3     1  lig        -0.4913
@<TRIPOS>BOND
     1     1    12    1
     2     2    13    1
     3     3    14    1
     4     4    15    1
     5     5    19    1
     6     6    19    1
     7     7    20    1
     8     8    21    1
     9     9    21    1
    10    10    21    1
    11    11    24    1
    12    12    14   ar
    13    12    16   ar
    14    13    15   ar
    15    13    16   ar
    16    14    17   ar
    17    15    17   ar
    18    16    19    1
    19    17    24    1
    20    18    20    1
    21    18    22    1
    22    18    23    1
    23    19    20    1
    24    20    21    1
@<TRIPOS>SUBSTRUCTURE
     1 lig         1 TEMP              0 ****  ****    0 ROOT


########## Name:		ligand
########## HA_RMSDs:		13.3870
########## HA_RMSDh:		13.2989
########## HA_RMSDm:		10.8587
########## Cluster Size:	6
##########    Grid Score:          -22.526464
##########      Grid_vdw:          -19.840015
##########       Grid_es:           -2.686449
##########    Int_energy:            2.383506

@<TRIPOS>MOLECULE
ligand
 24 24 1 0 0
SMALL
No Charge or Current Charge


@<TRIPOS>ATOM
      1 H1         10.0998    9.0775   20.1814 H       1  lig         0.1340
      2 H2          8.7683    8.2277   24.1463 H       1  lig         0.1340
      3 H3          8.0883    8.0045   19.3147 H       1  lig         0.1475
      4 H4          6.7590    7.0985   23.2765 H       1  lig         0.1475
      5 H5         10.7634    9.3332   23.8560 H       1  lig         0.0877
      6 H6         11.7138    8.8161   22.4995 H       1  lig         0.0877
      7 H7         10.3288   11.1004   21.5305 H       1  lig         0.0966
      8 H8         12.6301   10.3979   21.0864 H       1  lig         0.4431
      9 H9         12.6469   11.9641   21.6339 H       1  lig         0.4431
     10 H10        13.0583   10.7235   22.6664 H       1  lig         0.4431
     11 H11         6.0874    6.0912   21.1837 H       1  lig         0.4214
     12 C1          9.3795    8.6427   20.8697 C.ar    1  lig        -0.0999
     13 C2          8.6141    8.1650   23.0716 C.ar    1  lig        -0.0999
     14 C3          8.2480    8.0452   20.3866 C.ar    1  lig        -0.1787
     15 C4          7.4874    7.5238   22.5934 C.ar    1  lig        -0.1787
     16 C5          9.5707    8.6995   22.2162 C.ar    1  lig        -0.1394
     17 C6          7.3254    7.4623   21.2144 C.ar    1  lig         0.1292
     18 C7         10.6892   11.7562   23.5020 C.2     1  lig         0.9321
     19 C8         10.8111    9.3811   22.7618 C.3     1  lig        -0.0452
     20 C9         11.0073   10.8387   22.3437 C.3     1  lig        -0.0740
     21 N1         12.3922   10.9910   21.8991 N.4     1  lig        -0.8252
     22 O1          9.6273   11.5133   24.0712 O.co2   1  lig        -0.7573
     23 O2         11.4287   12.7210   23.8500 O.co2   1  lig        -0.7573
     24 O3          6.2886    6.9393   20.6920 O.3     1  lig        -0.4913
@<TRIPOS>BOND
     1     1    12    1
     2     2    13    1
     3     3    14    1
     4     4    15    1
     5     5    19    1
     6     6    19    1
     7     7    20    1
     8     8    21    1
     9     9    21    1
    10    10    21    1
    11    11    24    1
    12    12    14   ar
    13    12    16   ar
    14    13    15   ar
    15    13    16   ar
    16    14    17   ar
    17    15    17   ar
    18    16    19    1
    19    17    24    1
    20    18    20    1
    21    18    22    1
    22    18    23    1
    23    19    20    1
    24    20    21    1
@<TRIPOS>SUBSTRUCTURE
     1 lig         1 TEMP              0 ****  ****    0 ROOT


########## Name:		ligand
########## HA_RMSDs:		13.1664
########## HA_RMSDh:		13.1599
########## HA_RMSDm:		11.4839
########## Cluster Size:	1
##########    Grid Score:          -22.522028
##########      Grid_vdw:          -18.243073
##########       Grid_es:           -4.278955
##########    Int_energy:            6.417125

@<TRIPOS>MOLECULE
ligand
 24 24 1 0 0
SMALL
No Charge or Current Charge


@<TRIPOS>ATOM
      1 H1          7.9198    8.1030   23.9893 H       1  lig         0.1340
      2 H2         11.0209   10.5096   22.3139 H       1  lig         0.1340
      3 H3          7.1759   10.0292   25.2875 H       1  lig         0.1475
      4 H4         10.3058   12.4453   23.6596 H       1  lig         0.1475
      5 H5         11.0824    8.0050   22.2378 H       1  lig         0.0877
      6 H6          9.7354    7.0485   22.7681 H       1  lig         0.0877
      7 H7         10.1141    7.3216   20.2057 H       1  lig         0.0966
      8 H8         10.3569    9.7548   20.2907 H       1  lig         0.4431
      9 H9          9.0391    9.3828   19.3536 H       1  lig         0.4431
     10 H10         8.8180    9.9090   20.9184 H       1  lig         0.4431
     11 H11         7.3590   12.5730   24.8821 H       1  lig         0.4214
     12 C1          8.4549    9.0461   23.9126 C.ar    1  lig        -0.0999
     13 C2         10.1718   10.4084   22.9858 C.ar    1  lig        -0.0999
     14 C3          8.0366   10.1294   24.6353 C.ar    1  lig        -0.1787
     15 C4          9.7825   11.4979   23.7413 C.ar    1  lig        -0.1787
     16 C5          9.5299    9.1796   23.0884 C.ar    1  lig        -0.1394
     17 C6          8.6943   11.3300   24.5895 C.ar    1  lig         0.1292
     18 C7          8.0925    7.2940   20.8051 C.2     1  lig         0.9321
     19 C8          9.9866    7.9902   22.2652 C.3     1  lig        -0.0452
     20 C9          9.4617    7.9338   20.8302 C.3     1  lig        -0.0740
     21 N1          9.4277    9.3021   20.3152 N.4     1  lig        -0.8252
     22 O1          7.2777    7.7975   21.5753 O.co2   1  lig        -0.7573
     23 O2          7.8013    6.2998   20.0801 O.co2   1  lig        -0.7573
     24 O3          8.2359   12.2978   25.2783 O.3     1  lig        -0.4913
@<TRIPOS>BOND
     1     1    12    1
     2     2    13    1
     3     3    14    1
     4     4    15    1
     5     5    19    1
     6     6    19    1
     7     7    20    1
     8     8    21    1
     9     9    21    1
    10    10    21    1
    11    11    24    1
    12    12    14   ar
    13    12    16   ar
    14    13    15   ar
    15    13    16   ar
    16    14    17   ar
    17    15    17   ar
    18    16    19    1
    19    17    24    1
    20    18    20    1
    21    18    22    1
    22    18    23    1
    23    19    20    1
    24    20    21    1
@<TRIPOS>SUBSTRUCTURE
     1 lig         1 TEMP              0 ****  ****    0 ROOT


########## Name:		ligand
########## HA_RMSDs:		13.0367
########## HA_RMSDh:		13.0053
########## HA_RMSDm:		10.9475
########## Cluster Size:	2
##########    Grid Score:          -22.500393
##########      Grid_vdw:          -20.282442
##########       Grid_es:           -2.217952
##########    Int_energy:            1.355360

@<TRIPOS>MOLECULE
ligand
 24 24 1 0 0
SMALL
No Charge or Current Charge


@<TRIPOS>ATOM
      1 H1         10.7728    7.8084   20.6080 H       1  lig         0.1340
      2 H2          8.6488   10.2006   23.4332 H       1  lig         0.1340
      3 H3         12.5564    9.4720   20.5948 H       1  lig         0.1475
      4 H4         10.4233   11.9088   23.3869 H       1  lig         0.1475
      5 H5          8.8846    6.9738   22.5150 H       1  lig         0.0877
      6 H6          7.6620    8.1941   22.6783 H       1  lig         0.0877
      7 H7          8.6998    7.1169   20.0074 H       1  lig         0.0966
      8 H8          7.9504    9.4449   19.9344 H       1  lig         0.4431
      9 H9          6.8206    8.4969   19.1743 H       1  lig         0.4431
     10 H10         6.5371    9.0383   20.7238 H       1  lig         0.4431
     11 H11        13.1074   11.4134   21.0790 H       1  lig         0.4214
     12 C1         10.6809    8.7047   21.2163 C.ar    1  lig        -0.0999
     13 C2          9.5176   10.0508   22.7966 C.ar    1  lig        -0.0999
     14 C3         11.6820    9.6365   21.2149 C.ar    1  lig        -0.1787
     15 C4         10.5044   11.0177   22.7725 C.ar    1  lig        -0.1787
     16 C5          9.5899    8.9114   22.0035 C.ar    1  lig        -0.1394
     17 C6         11.5986   10.7920   21.9457 C.ar    1  lig         0.1292
     18 C7          6.9170    6.3511   20.8331 C.2     1  lig         0.9321
     19 C8          8.4854    7.8719   22.0294 C.3     1  lig        -0.0452
     20 C9          7.9106    7.4781   20.6684 C.3     1  lig        -0.0740
     21 N1          7.2870    8.6670   20.0884 N.4     1  lig        -0.8252
     22 O1          7.3984    5.2248   20.7314 O.co2   1  lig        -0.7573
     23 O2          5.6812    6.5347   21.0277 O.co2   1  lig        -0.7573
     24 O3         12.5779   11.6050   21.9064 O.3     1  lig        -0.4913
@<TRIPOS>BOND
     1     1    12    1
     2     2    13    1
     3     3    14    1
     4     4    15    1
     5     5    19    1
     6     6    19    1
     7     7    20    1
     8     8    21    1
     9     9    21    1
    10    10    21    1
    11    11    24    1
    12    12    14   ar
    13    12    16   ar
    14    13    15   ar
    15    13    16   ar
    16    14    17   ar
    17    15    17   ar
    18    16    19    1
    19    17    24    1
    20    18    20    1
    21    18    22    1
    22    18    23    1
    23    19    20    1
    24    20    21    1
@<TRIPOS>SUBSTRUCTURE
     1 lig         1 TEMP              0 ****  ****    0 ROOT


########## Name:		ligand
########## HA_RMSDs:		13.3015
########## HA_RMSDh:		13.2122
########## HA_RMSDm:		11.8144
########## Cluster Size:	3
##########    Grid Score:          -22.471935
##########      Grid_vdw:          -17.737043
##########       Grid_es:           -4.734891
##########    Int_energy:            1.893605

@<TRIPOS>MOLECULE
ligand
 24 24 1 0 0
SMALL
No Charge or Current Charge


@<TRIPOS>ATOM
      1 H1          7.1718    8.9088   23.5604 H       1  lig         0.1340
      2 H2         10.6318   10.9495   22.1183 H       1  lig         0.1340
      3 H3          7.0529    7.6938   21.4489 H       1  lig         0.1475
      4 H4         10.4882    9.7623   19.9645 H       1  lig         0.1475
      5 H5          8.5346   11.7558   24.1344 H       1  lig         0.0877
      6 H6          8.3586   10.2879   25.0427 H       1  lig         0.0877
      7 H7         11.1280   11.0000   24.0421 H       1  lig         0.0966
      8 H8         10.6592    8.8961   25.1999 H       1  lig         0.4431
      9 H9         11.6029    9.8455   26.1803 H       1  lig         0.4431
     10 H10         9.9676    9.7247   26.4731 H       1  lig         0.4431
     11 H11         8.9729    8.5188   18.7499 H       1  lig         0.4214
     12 C1          7.9004    9.1097   22.7790 C.ar    1  lig        -0.0999
     13 C2          9.8323   10.2302   21.9575 C.ar    1  lig        -0.0999
     14 C3          7.8393    8.4259   21.5961 C.ar    1  lig        -0.1787
     15 C4          9.7563    9.5743   20.7436 C.ar    1  lig        -0.1787
     16 C5          8.8949   10.0208   22.9624 C.ar    1  lig        -0.1394
     17 C6          8.7201    8.6635   20.5744 C.ar    1  lig         0.1292
     18 C7         10.4788   12.2495   25.6119 C.2     1  lig         0.9321
     19 C8          8.9847   10.7668   24.2801 C.3     1  lig        -0.0452
     20 C9         10.3931   10.9487   24.8468 C.3     1  lig        -0.0740
     21 N1         10.6794    9.7987   25.7037 N.4     1  lig        -0.8252
     22 O1          9.7264   12.3243   26.5809 O.co2   1  lig        -0.7573
     23 O2         11.2341   13.2065   25.2766 O.co2   1  lig        -0.7573
     24 O3          8.6103    7.9759   19.5084 O.3     1  lig        -0.4913
@<TRIPOS>BOND
     1     1    12    1
     2     2    13    1
     3     3    14    1
     4     4    15    1
     5     5    19    1
     6     6    19    1
     7     7    20    1
     8     8    21    1
     9     9    21    1
    10    10    21    1
    11    11    24    1
    12    12    14   ar
    13    12    16   ar
    14    13    15   ar
    15    13    16   ar
    16    14    17   ar
    17    15    17   ar
    18    16    19    1
    19    17    24    1
    20    18    20    1
    21    18    22    1
    22    18    23    1
    23    19    20    1
    24    20    21    1
@<TRIPOS>SUBSTRUCTURE
     1 lig         1 TEMP              0 ****  ****    0 ROOT


########## Name:		ligand
########## HA_RMSDs:		13.2339
########## HA_RMSDh:		13.1541
########## HA_RMSDm:		11.7869
########## Cluster Size:	2
##########    Grid Score:          -22.462080
##########      Grid_vdw:          -19.249496
##########       Grid_es:           -3.212584
##########    Int_energy:            2.843179

@<TRIPOS>MOLECULE
ligand
 24 24 1 0 0
SMALL
No Charge or Current Charge


@<TRIPOS>ATOM
      1 H1          7.4672    8.6032   24.1336 H       1  lig         0.1340
      2 H2         10.8627   10.7507   22.6934 H       1  lig         0.1340
      3 H3          6.9967    7.8872   21.8500 H       1  lig         0.1475
      4 H4         10.3647   10.0723   20.3781 H       1  lig         0.1475
      5 H5          8.9300    9.5173   25.6508 H       1  lig         0.0877
      6 H6         10.5418    9.9910   25.2171 H       1  lig         0.0877
      7 H7          8.9522   11.7363   26.3791 H       1  lig         0.0966
      8 H8          7.1335   11.4247   24.7722 H       1  lig         0.4431
      9 H9          7.6741   12.9899   24.6689 H       1  lig         0.4431
     10 H10         8.1349   11.8789   23.5165 H       1  lig         0.4431
     11 H11         8.9983    8.8696   19.1748 H       1  lig         0.4214
     12 C1          8.1058    8.9371   23.3197 C.ar    1  lig        -0.0999
     13 C2          9.9983   10.1213   22.4957 C.ar    1  lig        -0.0999
     14 C3          7.8475    8.5327   22.0389 C.ar    1  lig        -0.1787
     15 C4          9.7235    9.7516   21.1930 C.ar    1  lig        -0.1787
     16 C5          9.1803    9.7396   23.5529 C.ar    1  lig        -0.1394
     17 C6          8.6096    8.9482   20.9793 C.ar    1  lig         0.1292
     18 C7         10.3280   12.5188   24.9857 C.2     1  lig         0.9321
     19 C8          9.4883   10.1738   24.9733 C.3     1  lig        -0.0452
     20 C9          9.1525   11.6265   25.3123 C.3     1  lig        -0.0740
     21 N1          7.9635   11.9983   24.5463 N.4     1  lig        -0.8252
     22 O1         11.2049   12.5463   25.8464 O.co2   1  lig        -0.7573
     23 O2         10.4040   13.2130   23.9316 O.co2   1  lig        -0.7573
     24 O3          8.3173    8.5166   19.8176 O.3     1  lig        -0.4913
@<TRIPOS>BOND
     1     1    12    1
     2     2    13    1
     3     3    14    1
     4     4    15    1
     5     5    19    1
     6     6    19    1
     7     7    20    1
     8     8    21    1
     9     9    21    1
    10    10    21    1
    11    11    24    1
    12    12    14   ar
    13    12    16   ar
    14    13    15   ar
    15    13    16   ar
    16    14    17   ar
    17    15    17   ar
    18    16    19    1
    19    17    24    1
    20    18    20    1
    21    18    22    1
    22    18    23    1
    23    19    20    1
    24    20    21    1
@<TRIPOS>SUBSTRUCTURE
     1 lig         1 TEMP              0 ****  ****    0 ROOT


########## Name:		ligand
########## HA_RMSDs:		13.5580
########## HA_RMSDh:		13.4819
########## HA_RMSDm:		10.9646
########## Cluster Size:	1
##########    Grid Score:          -22.460001
##########      Grid_vdw:          -17.141485
##########       Grid_es:           -5.318516
##########    Int_energy:           10.824438

@<TRIPOS>MOLECULE
ligand
 24 24 1 0 0
SMALL
No Charge or Current Charge


@<TRIPOS>ATOM
      1 H1         25.0167    6.7098   12.0355 H       1  lig         0.1340
      2 H2         24.5407    7.1863   16.2499 H       1  lig         0.1340
      3 H3         27.2652    7.6365   12.2211 H       1  lig         0.1475
      4 H4         26.7918    8.1693   16.4373 H       1  lig         0.1475
      5 H5         23.3317    5.2303   14.1029 H       1  lig         0.0877
      6 H6         22.6239    6.6099   14.8815 H       1  lig         0.0877
      7 H7         21.3951    6.5845   12.9074 H       1  lig         0.0966
      8 H8         22.6487    4.7017   11.9744 H       1  lig         0.4431
      9 H9         22.4383    5.8425   10.7881 H       1  lig         0.4431
     10 H10        23.9083    5.7159   11.5612 H       1  lig         0.4431
     11 H11        28.7874    8.2036   13.4643 H       1  lig         0.4214
     12 C1         25.3908    7.0313   13.0041 C.ar    1  lig        -0.0999
     13 C2         25.1501    7.2991   15.3564 C.ar    1  lig        -0.0999
     14 C3         26.6533    7.5463   13.1120 C.ar    1  lig        -0.1787
     15 C4         26.4087    7.8577   15.4708 C.ar    1  lig        -0.1787
     16 C5         24.6304    6.9114   14.1267 C.ar    1  lig        -0.1394
     17 C6         27.1574    7.9871   14.3069 C.ar    1  lig         0.1292
     18 C7         22.7702    8.0665   12.3077 C.2     1  lig         0.9321
     19 C8         23.2379    6.3194   14.0204 C.3     1  lig        -0.0452
     20 C9         22.4711    6.6491   12.7392 C.3     1  lig        -0.0740
     21 N1         22.8703    5.6791   11.7202 N.4     1  lig        -0.8252
     22 O1         22.8286    8.8803   13.2269 O.co2   1  lig        -0.7573
     23 O2         22.9188    8.4104   11.1000 O.co2   1  lig        -0.7573
     24 O3         28.3474    8.4395   14.3317 O.3     1  lig        -0.4913
@<TRIPOS>BOND
     1     1    12    1
     2     2    13    1
     3     3    14    1
     4     4    15    1
     5     5    19    1
     6     6    19    1
     7     7    20    1
     8     8    21    1
     9     9    21    1
    10    10    21    1
    11    11    24    1
    12    12    14   ar
    13    12    16   ar
    14    13    15   ar
    15    13    16   ar
    16    14    17   ar
    17    15    17   ar
    18    16    19    1
    19    17    24    1
    20    18    20    1
    21    18    22    1
    22    18    23    1
    23    19    20    1
    24    20    21    1
@<TRIPOS>SUBSTRUCTURE
     1 lig         1 TEMP              0 ****  ****    0 ROOT


########## Name:		ligand
########## HA_RMSDs:		13.3484
########## HA_RMSDh:		13.2894
########## HA_RMSDm:		11.0808
########## Cluster Size:	4
##########    Grid Score:          -22.430700
##########      Grid_vdw:          -18.781883
##########       Grid_es:           -3.648818
##########    Int_energy:            1.658417

@<TRIPOS>MOLECULE
ligand
 24 24 1 0 0
SMALL
No Charge or Current Charge


@<TRIPOS>ATOM
      1 H1          8.6301    8.3060   24.0083 H       1  lig         0.1340
      2 H2         11.0481   11.1013   21.8740 H       1  lig         0.1340
      3 H3          8.1768    7.1502   21.9090 H       1  lig         0.1475
      4 H4         10.5540    9.9682   19.7430 H       1  lig         0.1475
      5 H5          9.9347    9.8028   25.1917 H       1  lig         0.0877
      6 H6         11.2203   10.7135   24.4647 H       1  lig         0.0877
      7 H7          8.4398   11.7977   24.0501 H       1  lig         0.0966
      8 H8         10.4588   12.8764   23.1861 H       1  lig         0.4431
      9 H9          9.7959   13.8462   24.3579 H       1  lig         0.4431
     10 H10        11.1243   12.9075   24.7165 H       1  lig         0.4431
     11 H11         9.2077    8.4097   18.8631 H       1  lig         0.4214
     12 C1          9.0524    8.6840   23.0807 C.ar    1  lig        -0.0999
     13 C2         10.4018   10.2267   21.8716 C.ar    1  lig        -0.0999
     14 C3          8.8043    8.0347   21.9028 C.ar    1  lig        -0.1787
     15 C4         10.1253    9.6021   20.6705 C.ar    1  lig        -0.1787
     16 C5          9.8483    9.7882   23.0690 C.ar    1  lig        -0.1394
     17 C6          9.2943    8.4886   20.7070 C.ar    1  lig         0.1292
     18 C7          8.9997   11.9059   26.0803 C.2     1  lig         0.9321
     19 C8         10.1482   10.5011   24.3740 C.3     1  lig        -0.0452
     20 C9          9.3706   11.7946   24.6192 C.3     1  lig        -0.0740
     21 N1         10.2149   12.9089   24.1903 N.4     1  lig        -0.8252
     22 O1          9.9457   11.8031   26.8582 O.co2   1  lig        -0.7573
     23 O2          7.8127   12.0597   26.4880 O.co2   1  lig        -0.7573
     24 O3          9.0341    7.8216   19.6540 O.3     1  lig        -0.4913
@<TRIPOS>BOND
     1     1    12    1
     2     2    13    1
     3     3    14    1
     4     4    15    1
     5     5    19    1
     6     6    19    1
     7     7    20    1
     8     8    21    1
     9     9    21    1
    10    10    21    1
    11    11    24    1
    12    12    14   ar
    13    12    16   ar
    14    13    15   ar
    15    13    16   ar
    16    14    17   ar
    17    15    17   ar
    18    16    19    1
    19    17    24    1
    20    18    20    1
    21    18    22    1
    22    18    23    1
    23    19    20    1
    24    20    21    1
@<TRIPOS>SUBSTRUCTURE
     1 lig         1 TEMP              0 ****  ****    0 ROOT


########## Name:		ligand
########## HA_RMSDs:		13.0012
########## HA_RMSDh:		12.9326
########## HA_RMSDm:		10.6876
########## Cluster Size:	3
##########    Grid Score:          -22.421721
##########      Grid_vdw:          -19.964909
##########       Grid_es:           -2.456812
##########    Int_energy:            1.995462

@<TRIPOS>MOLECULE
ligand
 24 24 1 0 0
SMALL
No Charge or Current Charge


@<TRIPOS>ATOM
      1 H1         11.6231   10.8204   21.6084 H       1  lig         0.1340
      2 H2          8.6482    9.1669   24.1835 H       1  lig         0.1340
      3 H3         10.5032    9.7814   19.7071 H       1  lig         0.1475
      4 H4          7.5404    8.0735   22.2739 H       1  lig         0.1475
      5 H5         10.7707   10.0402   25.0680 H       1  lig         0.0877
      6 H6         11.9862   10.7443   24.0495 H       1  lig         0.0877
      7 H7         10.2663   12.7030   23.6697 H       1  lig         0.0966
      8 H8         12.3213   12.8207   24.9924 H       1  lig         0.4431
      9 H9         11.1276   13.6559   25.7864 H       1  lig         0.4431
     10 H10        11.5471   12.1274   26.2985 H       1  lig         0.4431
     11 H11         8.9068    8.7400   19.0177 H       1  lig         0.4214
     12 C1         10.7337   10.2164   21.7687 C.ar    1  lig        -0.0999
     13 C2          9.0603    9.2906   23.1847 C.ar    1  lig        -0.0999
     14 C3         10.1005    9.6371   20.7037 C.ar    1  lig        -0.1787
     15 C4          8.4356    8.6679   22.1211 C.ar    1  lig        -0.1787
     16 C5         10.2190   10.0399   23.0164 C.ar    1  lig        -0.1394
     17 C6          8.9921    8.8477   20.8602 C.ar    1  lig         0.1292
     18 C7          9.0487   11.9987   25.2408 C.2     1  lig         0.9321
     19 C8         10.9010   10.6981   24.2007 C.3     1  lig        -0.0452
     20 C9         10.3978   12.0950   24.5659 C.3     1  lig        -0.0740
     21 N1         11.3952   12.7125   25.4391 N.4     1  lig        -0.8252
     22 O1          8.0877   12.1106   24.4828 O.co2   1  lig        -0.7573
     23 O2          8.9027   11.8481   26.4877 O.co2   1  lig        -0.7573
     24 O3          8.4478    8.3556   19.8197 O.3     1  lig        -0.4913
@<TRIPOS>BOND
     1     1    12    1
     2     2    13    1
     3     3    14    1
     4     4    15    1
     5     5    19    1
     6     6    19    1
     7     7    20    1
     8     8    21    1
     9     9    21    1
    10    10    21    1
    11    11    24    1
    12    12    14   ar
    13    12    16   ar
    14    13    15   ar
    15    13    16   ar
    16    14    17   ar
    17    15    17   ar
    18    16    19    1
    19    17    24    1
    20    18    20    1
    21    18    22    1
    22    18    23    1
    23    19    20    1
    24    20    21    1
@<TRIPOS>SUBSTRUCTURE
     1 lig         1 TEMP              0 ****  ****    0 ROOT


########## Name:		ligand
########## HA_RMSDs:		13.1370
########## HA_RMSDh:		13.0587
########## HA_RMSDm:		10.8142
########## Cluster Size:	3
##########    Grid Score:          -22.415833
##########      Grid_vdw:          -19.475199
##########       Grid_es:           -2.940634
##########    Int_energy:            2.571672

@<TRIPOS>MOLECULE
ligand
 24 24 1 0 0
SMALL
No Charge or Current Charge


@<TRIPOS>ATOM
      1 H1          8.1361    9.4136   22.9449 H       1  lig         0.1340
      2 H2         11.2272   12.1731   23.9677 H       1  lig         0.1340
      3 H3          9.4717    8.6790   21.0409 H       1  lig         0.1475
      4 H4         12.5593   11.4711   22.0179 H       1  lig         0.1475
      5 H5          8.3149   12.2686   24.5065 H       1  lig         0.0877
      6 H6          7.9186   10.6312   24.9218 H       1  lig         0.0877
      7 H7         10.4553   12.0207   25.9185 H       1  lig         0.0966
      8 H8         10.4633    9.5741   25.8939 H       1  lig         0.4431
      9 H9         10.3526   10.0912   27.4665 H       1  lig         0.4431
     10 H10         8.9917    9.5389   26.6807 H       1  lig         0.4431
     11 H11        11.9821   10.3617   19.8183 H       1  lig         0.4214
     12 C1          9.1000    9.8767   22.7496 C.ar    1  lig        -0.0999
     13 C2         10.8393   11.4026   23.3055 C.ar    1  lig        -0.0999
     14 C3          9.8535    9.4629   21.6858 C.ar    1  lig        -0.1787
     15 C4         11.5909   11.0205   22.2108 C.ar    1  lig        -0.1787
     16 C5          9.5877   10.8544   23.5614 C.ar    1  lig        -0.1394
     17 C6         11.0618   10.0343   21.3865 C.ar    1  lig         0.1292
     18 C7          8.7029   12.2105   27.0760 C.2     1  lig         0.9321
     19 C8          8.7696   11.3031   24.7573 C.3     1  lig        -0.0452
     20 C9          9.5379   11.4504   26.0712 C.3     1  lig        -0.0740
     21 N1          9.8654   10.1071   26.5475 N.4     1  lig        -0.8252
     22 O1          7.4940   12.0020   26.9998 O.co2   1  lig        -0.7573
     23 O2          9.1894   13.0240   27.9129 O.co2   1  lig        -0.7573
     24 O3         11.7134    9.5848   20.3892 O.3     1  lig        -0.4913
@<TRIPOS>BOND
     1     1    12    1
     2     2    13    1
     3     3    14    1
     4     4    15    1
     5     5    19    1
     6     6    19    1
     7     7    20    1
     8     8    21    1
     9     9    21    1
    10    10    21    1
    11    11    24    1
    12    12    14   ar
    13    12    16   ar
    14    13    15   ar
    15    13    16   ar
    16    14    17   ar
    17    15    17   ar
    18    16    19    1
    19    17    24    1
    20    18    20    1
    21    18    22    1
    22    18    23    1
    23    19    20    1
    24    20    21    1
@<TRIPOS>SUBSTRUCTURE
     1 lig         1 TEMP              0 ****  ****    0 ROOT


########## Name:		ligand
########## HA_RMSDs:		14.0123
########## HA_RMSDh:		13.9577
########## HA_RMSDm:		12.1468
########## Cluster Size:	3
##########    Grid Score:          -22.408691
##########      Grid_vdw:          -18.268358
##########       Grid_es:           -4.140334
##########    Int_energy:            2.756929

@<TRIPOS>MOLECULE
ligand
 24 24 1 0 0
SMALL
No Charge or Current Charge


@<TRIPOS>ATOM
      1 H1          7.2560    8.5184   23.8092 H       1  lig         0.1340
      2 H2         10.8196   10.3870   22.3863 H       1  lig         0.1340
      3 H3          6.7550    7.8184   21.5271 H       1  lig         0.1475
      4 H4         10.2942    9.7263   20.0719 H       1  lig         0.1475
      5 H5          9.5283    9.0284   25.2501 H       1  lig         0.0877
      6 H6         10.3502   10.4531   24.6974 H       1  lig         0.0877
      7 H7          7.4082   10.2544   25.4971 H       1  lig         0.0966
      8 H8          7.7124   11.7137   23.5569 H       1  lig         0.4431
      9 H9          7.4124   12.6547   24.8901 H       1  lig         0.4431
     10 H10         8.9699   12.5030   24.3195 H       1  lig         0.4431
     11 H11         8.7369    8.7770   18.8390 H       1  lig         0.4214
     12 C1          7.9262    8.7949   22.9993 C.ar    1  lig        -0.0999
     13 C2          9.9116    9.8234   22.1850 C.ar    1  lig        -0.0999
     14 C3          7.6506    8.3990   21.7194 C.ar    1  lig        -0.1787
     15 C4          9.6224    9.4632   20.8827 C.ar    1  lig        -0.1787
     16 C5          9.0564    9.5153   23.2368 C.ar    1  lig        -0.1394
     17 C6          8.4526    8.7450   20.6643 C.ar    1  lig         0.1292
     18 C7          8.8286   11.2286   26.7139 C.2     1  lig         0.9321
     19 C8          9.3825    9.9384   24.6565 C.3     1  lig        -0.0452
     20 C9          8.3344   10.8111   25.3477 C.3     1  lig        -0.0740
     21 N1          8.0820   11.9673   24.4886 N.4     1  lig        -0.8252
     22 O1          9.5964   10.4304   27.2468 O.co2   1  lig        -0.7573
     23 O2          8.4658   12.2939   27.2904 O.co2   1  lig        -0.7573
     24 O3          8.1398    8.3258   19.5034 O.3     1  lig        -0.4913
@<TRIPOS>BOND
     1     1    12    1
     2     2    13    1
     3     3    14    1
     4     4    15    1
     5     5    19    1
     6     6    19    1
     7     7    20    1
     8     8    21    1
     9     9    21    1
    10    10    21    1
    11    11    24    1
    12    12    14   ar
    13    12    16   ar
    14    13    15   ar
    15    13    16   ar
    16    14    17   ar
    17    15    17   ar
    18    16    19    1
    19    17    24    1
    20    18    20    1
    21    18    22    1
    22    18    23    1
    23    19    20    1
    24    20    21    1
@<TRIPOS>SUBSTRUCTURE
     1 lig         1 TEMP              0 ****  ****    0 ROOT


########## Name:		ligand
########## HA_RMSDs:		12.0128
########## HA_RMSDh:		11.9763
########## HA_RMSDm:		10.4904
########## Cluster Size:	3
##########    Grid Score:          -22.388359
##########      Grid_vdw:          -20.448019
##########       Grid_es:           -1.940341
##########    Int_energy:            1.844595

@<TRIPOS>MOLECULE
ligand
 24 24 1 0 0
SMALL
No Charge or Current Charge


@<TRIPOS>ATOM
      1 H1         12.4731    9.2365   21.2372 H       1  lig         0.1340
      2 H2          8.9024   10.9781   22.7968 H       1  lig         0.1340
      3 H3         13.7651   10.5229   22.8573 H       1  lig         0.1475
      4 H4         10.2049   12.3179   24.4022 H       1  lig         0.1475
      5 H5          9.5255    9.8980   20.0796 H       1  lig         0.0877
      6 H6         10.4172    8.4547   20.4434 H       1  lig         0.0877
      7 H7          7.8172    9.3484   21.7800 H       1  lig         0.0966
      8 H8          9.3476    8.2869   23.3669 H       1  lig         0.4431
      9 H9          8.1192    7.2268   23.0202 H       1  lig         0.4431
     10 H10         9.6101    7.0262   22.3050 H       1  lig         0.4431
     11 H11        12.2303   12.5932   25.1885 H       1  lig         0.4214
     12 C1         11.9647    9.9122   21.9203 C.ar    1  lig        -0.0999
     13 C2          9.9862   10.8900   22.8103 C.ar    1  lig        -0.0999
     14 C3         12.6862   10.6307   22.8334 C.ar    1  lig        -0.1787
     15 C4         10.7083   11.6506   23.7099 C.ar    1  lig        -0.1787
     16 C5         10.6100   10.0440   21.9006 C.ar    1  lig        -0.1394
     17 C6         12.0913   11.5123   23.6965 C.ar    1  lig         0.1292
     18 C7          7.8510    7.7755   20.3758 C.2     1  lig         0.9321
     19 C8          9.7996    9.2333   20.9072 C.3     1  lig        -0.0452
     20 C9          8.5280    8.5863   21.4571 C.3     1  lig        -0.0740
     21 N1          8.9101    7.7534   22.5968 N.4     1  lig        -0.8252
     22 O1          6.9225    8.3493   19.8108 O.co2   1  lig        -0.7573
     23 O2          8.1796    6.5895   20.0855 O.co2   1  lig        -0.7573
     24 O3         12.8271   12.1338   24.5294 O.3     1  lig        -0.4913
@<TRIPOS>BOND
     1     1    12    1
     2     2    13    1
     3     3    14    1
     4     4    15    1
     5     5    19    1
     6     6    19    1
     7     7    20    1
     8     8    21    1
     9     9    21    1
    10    10    21    1
    11    11    24    1
    12    12    14   ar
    13    12    16   ar
    14    13    15   ar
    15    13    16   ar
    16    14    17   ar
    17    15    17   ar
    18    16    19    1
    19    17    24    1
    20    18    20    1
    21    18    22    1
    22    18    23    1
    23    19    20    1
    24    20    21    1
@<TRIPOS>SUBSTRUCTURE
     1 lig         1 TEMP              0 ****  ****    0 ROOT


########## Name:		ligand
########## HA_RMSDs:		14.0358
########## HA_RMSDh:		13.9764
########## HA_RMSDm:		12.0889
########## Cluster Size:	1
##########    Grid Score:          -22.376469
##########      Grid_vdw:          -16.632401
##########       Grid_es:           -5.744069
##########    Int_energy:            1.799279

@<TRIPOS>MOLECULE
ligand
 24 24 1 0 0
SMALL
No Charge or Current Charge


@<TRIPOS>ATOM
      1 H1         23.6210    7.9807   12.7764 H       1  lig         0.1340
      2 H2         26.0139    4.8071   14.3314 H       1  lig         0.1340
      3 H3         24.9658    9.5692   14.0480 H       1  lig         0.1475
      4 H4         27.3444    6.4011   15.6572 H       1  lig         0.1475
      5 H5         23.8349    5.6767   11.6615 H       1  lig         0.0877
      6 H6         24.4202    4.3424   12.6035 H       1  lig         0.0877
      7 H7         21.9018    5.9683   13.2190 H       1  lig         0.0966
      8 H8         23.0489    5.1554   15.2215 H       1  lig         0.4431
      9 H9         21.6776    4.2509   14.9882 H       1  lig         0.4431
     10 H10        23.1619    3.6258   14.5633 H       1  lig         0.4431
     11 H11        27.5301    8.5229   16.1572 H       1  lig         0.4214
     12 C1         24.4293    7.6211   13.4082 C.ar    1  lig        -0.0999
     13 C2         25.7809    5.8681   14.2816 C.ar    1  lig        -0.0999
     14 C3         25.1885    8.5101   14.1180 C.ar    1  lig        -0.1787
     15 C4         26.5286    6.7536   15.0341 C.ar    1  lig        -0.1787
     16 C5         24.7187    6.2937   13.4922 C.ar    1  lig        -0.1394
     17 C6         26.2003    8.1013   14.9458 C.ar    1  lig         0.1292
     18 C7         21.7632    4.0849   12.2807 C.2     1  lig         0.9321
     19 C8         23.8972    5.3025   12.6900 C.3     1  lig        -0.0452
     20 C9         22.4804    5.0435   13.2034 C.3     1  lig        -0.0740
     21 N1         22.5901    4.5073   14.5595 N.4     1  lig        -0.8252
     22 O1         21.6724    4.4663   11.1158 O.co2   1  lig        -0.7573
     23 O2         21.2623    2.9899   12.6665 O.co2   1  lig        -0.7573
     24 O3         26.8740    8.9888   15.5621 O.3     1  lig        -0.4913
@<TRIPOS>BOND
     1     1    12    1
     2     2    13    1
     3     3    14    1
     4     4    15    1
     5     5    19    1
     6     6    19    1
     7     7    20    1
     8     8    21    1
     9     9    21    1
    10    10    21    1
    11    11    24    1
    12    12    14   ar
    13    12    16   ar
    14    13    15   ar
    15    13    16   ar
    16    14    17   ar
    17    15    17   ar
    18    16    19    1
    19    17    24    1
    20    18    20    1
    21    18    22    1
    22    18    23    1
    23    19    20    1
    24    20    21    1
@<TRIPOS>SUBSTRUCTURE
     1 lig         1 TEMP              0 ****  ****    0 ROOT


########## Name:		ligand
########## HA_RMSDs:		14.3708
########## HA_RMSDh:		14.3443
########## HA_RMSDm:		12.4036
########## Cluster Size:	1
##########    Grid Score:          -22.349735
##########      Grid_vdw:          -20.122177
##########       Grid_es:           -2.227557
##########    Int_energy:            3.754277

@<TRIPOS>MOLECULE
ligand
 24 24 1 0 0
SMALL
No Charge or Current Charge


@<TRIPOS>ATOM
      1 H1         25.6436    4.7571   12.2415 H       1  lig         0.1340
      2 H2         22.6181    7.6646   13.0213 H       1  lig         0.1340
      3 H3         27.3147    6.3246   13.0777 H       1  lig         0.1475
      4 H4         24.3063    9.2710   13.8205 H       1  lig         0.1475
      5 H5         22.2208    5.7200   11.5195 H       1  lig         0.0877
      6 H6         23.4082    4.4746   11.2973 H       1  lig         0.0877
      7 H7         21.8386    4.9338   13.8852 H       1  lig         0.0966
      8 H8         24.0700    3.9823   14.2052 H       1  lig         0.4431
      9 H9         22.9416    2.7931   14.4607 H       1  lig         0.4431
     10 H10        23.7783    2.8425   13.0213 H       1  lig         0.4431
     11 H11        27.6946    8.0965   13.9954 H       1  lig         0.4214
     12 C1         25.3382    5.7445   12.5783 C.ar    1  lig        -0.0999
     13 C2         23.6670    7.3778   13.0280 C.ar    1  lig        -0.0999
     14 C3         26.2725    6.6234   13.0528 C.ar    1  lig        -0.1787
     15 C4         24.6070    8.2881   13.4718 C.ar    1  lig        -0.1787
     16 C5         24.0303    6.1210   12.5579 C.ar    1  lig        -0.1394
     17 C6         25.9375    7.8863   13.4643 C.ar    1  lig         0.1292
     18 C7         21.1884    3.4777   12.5054 C.2     1  lig         0.9321
     19 C8         22.9842    5.1441   12.0554 C.3     1  lig        -0.0452
     20 C9         22.2963    4.2972   13.1266 C.3     1  lig        -0.0740
     21 N1         23.3145    3.4482   13.7438 N.4     1  lig        -0.8252
     22 O1         20.7230    3.9475   11.4694 O.co2   1  lig        -0.7573
     23 O2         20.7422    2.4099   13.0147 O.co2   1  lig        -0.7573
     24 O3         26.8604    8.6426   13.9088 O.3     1  lig        -0.4913
@<TRIPOS>BOND
     1     1    12    1
     2     2    13    1
     3     3    14    1
     4     4    15    1
     5     5    19    1
     6     6    19    1
     7     7    20    1
     8     8    21    1
     9     9    21    1
    10    10    21    1
    11    11    24    1
    12    12    14   ar
    13    12    16   ar
    14    13    15   ar
    15    13    16   ar
    16    14    17   ar
    17    15    17   ar
    18    16    19    1
    19    17    24    1
    20    18    20    1
    21    18    22    1
    22    18    23    1
    23    19    20    1
    24    20    21    1
@<TRIPOS>SUBSTRUCTURE
     1 lig         1 TEMP              0 ****  ****    0 ROOT


########## Name:		ligand
########## HA_RMSDs:		12.9012
########## HA_RMSDh:		12.8540
########## HA_RMSDm:		10.9866
########## Cluster Size:	3
##########    Grid Score:          -22.331486
##########      Grid_vdw:          -19.489943
##########       Grid_es:           -2.841542
##########    Int_energy:            2.024195

@<TRIPOS>MOLECULE
ligand
 24 24 1 0 0
SMALL
No Charge or Current Charge


@<TRIPOS>ATOM
      1 H1         11.0450   10.0908   21.5869 H       1  lig         0.1340
      2 H2          8.1328    9.6050   24.6689 H       1  lig         0.1340
      3 H3         11.8582   12.0914   22.7205 H       1  lig         0.1475
      4 H4          8.9165   11.6526   25.7926 H       1  lig         0.1475
      5 H5          9.6446    8.3230   21.4629 H       1  lig         0.0877
      6 H6          9.2047    7.5962   22.9758 H       1  lig         0.0877
      7 H7          7.1934    9.5177   21.8298 H       1  lig         0.0966
      8 H8          6.8533    8.2521   23.8961 H       1  lig         0.4431
      9 H9          5.7759    7.7113   22.7560 H       1  lig         0.4431
     10 H10         7.1412    6.8183   23.0918 H       1  lig         0.4431
     11 H11        10.4339   13.2178   25.6914 H       1  lig         0.4214
     12 C1         10.5661   10.4253   22.5036 C.ar    1  lig        -0.0999
     13 C2          8.9554   10.1699   24.2366 C.ar    1  lig        -0.0999
     14 C3         11.0235   11.5438   23.1443 C.ar    1  lig        -0.1787
     15 C4          9.3833   11.3206   24.8707 C.ar    1  lig        -0.1787
     16 C5          9.5242    9.7363   23.0446 C.ar    1  lig        -0.1394
     17 C6         10.4357   12.0166   24.2875 C.ar    1  lig         0.1292
     18 C7          7.3987    7.8289   20.5838 C.2     1  lig         0.9321
     19 C8          9.0254    8.4814   22.3536 C.3     1  lig        -0.0452
     20 C9          7.5557    8.4938   21.9321 C.3     1  lig        -0.0740
     21 N1          6.7904    7.8009   22.9680 N.4     1  lig        -0.8252
     22 O1          7.8329    6.6806   20.5253 O.co2   1  lig        -0.7573
     23 O2          6.8935    8.4046   19.5778 O.co2   1  lig        -0.7573
     24 O3         10.9277   13.0550   24.8362 O.3     1  lig        -0.4913
@<TRIPOS>BOND
     1     1    12    1
     2     2    13    1
     3     3    14    1
     4     4    15    1
     5     5    19    1
     6     6    19    1
     7     7    20    1
     8     8    21    1
     9     9    21    1
    10    10    21    1
    11    11    24    1
    12    12    14   ar
    13    12    16   ar
    14    13    15   ar
    15    13    16   ar
    16    14    17   ar
    17    15    17   ar
    18    16    19    1
    19    17    24    1
    20    18    20    1
    21    18    22    1
    22    18    23    1
    23    19    20    1
    24    20    21    1
@<TRIPOS>SUBSTRUCTURE
     1 lig         1 TEMP              0 ****  ****    0 ROOT


########## Name:		ligand
########## HA_RMSDs:		13.8288
########## HA_RMSDh:		13.8110
########## HA_RMSDm:		12.1881
########## Cluster Size:	3
##########    Grid Score:          -22.322685
##########      Grid_vdw:          -19.916615
##########       Grid_es:           -2.406070
##########    Int_energy:            1.283818

@<TRIPOS>MOLECULE
ligand
 24 24 1 0 0
SMALL
No Charge or Current Charge


@<TRIPOS>ATOM
      1 H1          9.9691    8.6358   21.9311 H       1  lig         0.1340
      2 H2          6.9201    9.5905   24.7610 H       1  lig         0.1340
      3 H3         10.8993   10.8700   22.2340 H       1  lig         0.1475
      4 H4          7.8251   11.8654   25.0344 H       1  lig         0.1475
      5 H5          8.5981    6.9457   22.7452 H       1  lig         0.0877
      6 H6          7.5475    7.1484   24.1111 H       1  lig         0.0877
      7 H7          6.0243    8.4128   22.2077 H       1  lig         0.0966
      8 H8          5.3896    6.5726   23.6901 H       1  lig         0.4431
      9 H9          4.8973    6.2091   22.1479 H       1  lig         0.4431
     10 H10         6.2693    5.4956   22.7670 H       1  lig         0.4431
     11 H11        10.6850   12.7279   23.0333 H       1  lig         0.4214
     12 C1          9.4863    9.3353   22.6089 C.ar    1  lig        -0.0999
     13 C2          7.8001    9.8867   24.1948 C.ar    1  lig        -0.0999
     14 C3         10.0090   10.5869   22.7848 C.ar    1  lig        -0.1787
     15 C4          8.2961   11.1670   24.3500 C.ar    1  lig        -0.1787
     16 C5          8.3741    8.9816   23.3095 C.ar    1  lig        -0.1394
     17 C6          9.4208   11.5095   23.6087 C.ar    1  lig         0.1292
     18 C7          7.0312    7.2074   20.8005 C.2     1  lig         0.9321
     19 C8          7.8012    7.5876   23.1387 C.3     1  lig        -0.0452
     20 C9          6.5845    7.4766   22.2192 C.3     1  lig        -0.0740
     21 N1          5.7368    6.4007   22.7315 N.4     1  lig        -0.8252
     22 O1          6.8756    8.1497   20.0269 O.co2   1  lig        -0.7573
     23 O2          7.4990    6.0973   20.4163 O.co2   1  lig        -0.7573
     24 O3          9.9747   12.6492   23.7340 O.3     1  lig        -0.4913
@<TRIPOS>BOND
     1     1    12    1
     2     2    13    1
     3     3    14    1
     4     4    15    1
     5     5    19    1
     6     6    19    1
     7     7    20    1
     8     8    21    1
     9     9    21    1
    10    10    21    1
    11    11    24    1
    12    12    14   ar
    13    12    16   ar
    14    13    15   ar
    15    13    16   ar
    16    14    17   ar
    17    15    17   ar
    18    16    19    1
    19    17    24    1
    20    18    20    1
    21    18    22    1
    22    18    23    1
    23    19    20    1
    24    20    21    1
@<TRIPOS>SUBSTRUCTURE
     1 lig         1 TEMP              0 ****  ****    0 ROOT


########## Name:		ligand
########## HA_RMSDs:		12.9276
########## HA_RMSDh:		12.9276
########## HA_RMSDm:		11.0929
########## Cluster Size:	2
##########    Grid Score:          -22.296799
##########      Grid_vdw:          -19.558905
##########       Grid_es:           -2.737895
##########    Int_energy:            1.228029

@<TRIPOS>MOLECULE
ligand
 24 24 1 0 0
SMALL
No Charge or Current Charge


@<TRIPOS>ATOM
      1 H1          8.6052    9.4668   24.6167 H       1  lig         0.1340
      2 H2         10.7265    9.5280   20.9137 H       1  lig         0.1340
      3 H3          9.8835   11.4142   25.3396 H       1  lig         0.1475
      4 H4         12.0560   11.4642   21.6570 H       1  lig         0.1475
      5 H5          9.2865    7.7579   21.3737 H       1  lig         0.0877
      6 H6          8.8515    7.3500   23.0031 H       1  lig         0.0877
      7 H7          7.1579    9.4972   21.7849 H       1  lig         0.0966
      8 H8          6.7490    8.4559   23.9610 H       1  lig         0.4431
      9 H9          5.5031    8.0618   22.9386 H       1  lig         0.4431
     10 H10         6.6981    6.9450   23.2536 H       1  lig         0.4431
     11 H11        11.3998   12.7090   24.9685 H       1  lig         0.4214
     12 C1          9.3621    9.8905   23.9615 C.ar    1  lig        -0.0999
     13 C2         10.5519    9.9480   21.9015 C.ar    1  lig        -0.0999
     14 C3         10.0766   10.9858   24.3622 C.ar    1  lig        -0.1787
     15 C4         11.3073   11.0298   22.3118 C.ar    1  lig        -0.1787
     16 C5          9.6018    9.3623   22.7301 C.ar    1  lig        -0.1394
     17 C6         11.0568   11.5381   23.5810 C.ar    1  lig         0.1292
     18 C7          6.9435    7.7244   20.6633 C.2     1  lig         0.9321
     19 C8          8.7977    8.1620   22.2678 C.3     1  lig        -0.0452
     20 C9          7.3280    8.4312   21.9428 C.3     1  lig        -0.0740
     21 N1          6.5297    7.9669   23.0768 N.4     1  lig        -0.8252
     22 O1          6.9881    8.4277   19.6563 O.co2   1  lig        -0.7573
     23 O2          6.5719    6.5166   20.6191 O.co2   1  lig        -0.7573
     24 O3         11.6684   12.5672   24.0149 O.3     1  lig        -0.4913
@<TRIPOS>BOND
     1     1    12    1
     2     2    13    1
     3     3    14    1
     4     4    15    1
     5     5    19    1
     6     6    19    1
     7     7    20    1
     8     8    21    1
     9     9    21    1
    10    10    21    1
    11    11    24    1
    12    12    14   ar
    13    12    16   ar
    14    13    15   ar
    15    13    16   ar
    16    14    17   ar
    17    15    17   ar
    18    16    19    1
    19    17    24    1
    20    18    20    1
    21    18    22    1
    22    18    23    1
    23    19    20    1
    24    20    21    1
@<TRIPOS>SUBSTRUCTURE
     1 lig         1 TEMP              0 ****  ****    0 ROOT


########## Name:		ligand
########## HA_RMSDs:		12.6633
########## HA_RMSDh:		12.6097
########## HA_RMSDm:		10.2559
########## Cluster Size:	2
##########    Grid Score:          -22.167778
##########      Grid_vdw:          -19.205912
##########       Grid_es:           -2.961866
##########    Int_energy:            1.044053

@<TRIPOS>MOLECULE
ligand
 24 24 1 0 0
SMALL
No Charge or Current Charge


@<TRIPOS>ATOM
      1 H1         12.1245   12.3954   23.8290 H       1  lig         0.1340
      2 H2          8.4042   10.4181   23.1474 H       1  lig         0.1340
      3 H3         13.0511   11.2429   21.8894 H       1  lig         0.1475
      4 H4          9.3482    9.2129   21.2173 H       1  lig         0.1475
      5 H5         10.2487   13.0713   25.0087 H       1  lig         0.0877
      6 H6          8.6367   12.5948   24.5786 H       1  lig         0.0877
      7 H7         10.1309   10.4697   26.0404 H       1  lig         0.0966
      8 H8          7.7390   10.4330   25.5261 H       1  lig         0.4431
      9 H9          7.9295   10.4912   27.1733 H       1  lig         0.4431
     10 H10         7.5190   11.8736   26.3398 H       1  lig         0.4431
     11 H11        12.0785   10.3201   19.7961 H       1  lig         0.4214
     12 C1         11.5078   11.6964   23.2697 C.ar    1  lig        -0.0999
     13 C2          9.4408   10.5886   22.8665 C.ar    1  lig        -0.0999
     14 C3         12.0232   11.0529   22.1784 C.ar    1  lig        -0.1787
     15 C4          9.9630    9.9028   21.7865 C.ar    1  lig        -0.1787
     16 C5         10.2144   11.4617   23.6227 C.ar    1  lig        -0.1394
     17 C6         11.2917   10.1456   21.4587 C.ar    1  lig         0.1292
     18 C7         10.0519   12.1798   27.2718 C.2     1  lig         0.9321
     19 C8          9.6271   12.1888   24.8174 C.3     1  lig        -0.0452
     20 C9          9.5240   11.3738   26.1071 C.3     1  lig        -0.0740
     21 N1          8.1192   11.0125   26.2934 N.4     1  lig        -0.8252
     22 O1         11.1882   11.8783   27.6301 O.co2   1  lig        -0.7573
     23 O2          9.3797   13.0732   27.8623 O.co2   1  lig        -0.7573
     24 O3         11.8344    9.5984   20.4452 O.3     1  lig        -0.4913
@<TRIPOS>BOND
     1     1    12    1
     2     2    13    1
     3     3    14    1
     4     4    15    1
     5     5    19    1
     6     6    19    1
     7     7    20    1
     8     8    21    1
     9     9    21    1
    10    10    21    1
    11    11    24    1
    12    12    14   ar
    13    12    16   ar
    14    13    15   ar
    15    13    16   ar
    16    14    17   ar
    17    15    17   ar
    18    16    19    1
    19    17    24    1
    20    18    20    1
    21    18    22    1
    22    18    23    1
    23    19    20    1
    24    20    21    1
@<TRIPOS>SUBSTRUCTURE
     1 lig         1 TEMP              0 ****  ****    0 ROOT


########## Name:		ligand
########## HA_RMSDs:		12.5502
########## HA_RMSDh:		12.4773
########## HA_RMSDm:		10.2611
########## Cluster Size:	20
##########    Grid Score:          -22.151552
##########      Grid_vdw:          -20.431740
##########       Grid_es:           -1.719813
##########    Int_energy:            0.945976

@<TRIPOS>MOLECULE
ligand
 24 24 1 0 0
SMALL
No Charge or Current Charge


@<TRIPOS>ATOM
      1 H1         10.2633    9.3390   19.8592 H       1  lig         0.1340
      2 H2          8.7008    9.8703   23.7951 H       1  lig         0.1340
      3 H3          8.2806    8.0392   19.2866 H       1  lig         0.1475
      4 H4          6.7193    8.5164   23.2386 H       1  lig         0.1475
      5 H5         11.1414   11.0434   21.3287 H       1  lig         0.0877
      6 H6         10.5854   11.2673   22.9570 H       1  lig         0.0877
      7 H7         11.8843    8.6313   22.6210 H       1  lig         0.0966
      8 H8         11.3829    9.7521   24.7374 H       1  lig         0.4431
      9 H9         13.0267    9.5674   24.6081 H       1  lig         0.4431
     10 H10        12.3353   11.0514   24.3010 H       1  lig         0.4431
     11 H11         5.5927    7.8303   21.3448 H       1  lig         0.4214
     12 C1          9.4979    9.1610   20.6102 C.ar    1  lig        -0.0999
     13 C2          8.6041    9.4507   22.7965 C.ar    1  lig        -0.0999
     14 C3          8.3824    8.4371   20.2903 C.ar    1  lig        -0.1787
     15 C4          7.4923    8.6872   22.4961 C.ar    1  lig        -0.1787
     16 C5          9.6165    9.6662   21.8686 C.ar    1  lig        -0.1394
     17 C6          7.4045    8.1666   21.2104 C.ar    1  lig         0.1292
     18 C7         13.2781   10.0656   21.9522 C.2     1  lig         0.9321
     19 C8         10.8390   10.4903   22.2256 C.3     1  lig        -0.0452
     20 C9         12.0430    9.7036   22.7448 C.3     1  lig        -0.0740
     21 N1         12.2010   10.0183   24.1641 N.4     1  lig        -0.8252
     22 O1         13.5113    9.3241   21.0001 O.co2   1  lig        -0.7573
     23 O2         14.0391   11.0304   22.2502 O.co2   1  lig        -0.7573
     24 O3          6.3873    7.4996   20.8340 O.3     1  lig        -0.4913
@<TRIPOS>BOND
     1     1    12    1
     2     2    13    1
     3     3    14    1
     4     4    15    1
     5     5    19    1
     6     6    19    1
     7     7    20    1
     8     8    21    1
     9     9    21    1
    10    10    21    1
    11    11    24    1
    12    12    14   ar
    13    12    16   ar
    14    13    15   ar
    15    13    16   ar
    16    14    17   ar
    17    15    17   ar
    18    16    19    1
    19    17    24    1
    20    18    20    1
    21    18    22    1
    22    18    23    1
    23    19    20    1
    24    20    21    1
@<TRIPOS>SUBSTRUCTURE
     1 lig         1 TEMP              0 ****  ****    0 ROOT


########## Name:		ligand
########## HA_RMSDs:		13.1438
########## HA_RMSDh:		13.0526
########## HA_RMSDm:		10.8663
########## Cluster Size:	3
##########    Grid Score:          -22.135649
##########      Grid_vdw:          -19.182503
##########       Grid_es:           -2.953146
##########    Int_energy:            3.385992

@<TRIPOS>MOLECULE
ligand
 24 24 1 0 0
SMALL
No Charge or Current Charge


@<TRIPOS>ATOM
      1 H1          9.2816    9.9497   19.7987 H       1  lig         0.1340
      2 H2          9.9248    7.7994   23.4289 H       1  lig         0.1340
      3 H3          7.4036    8.4754   19.3005 H       1  lig         0.1475
      4 H4          8.0606    6.2755   22.9078 H       1  lig         0.1475
      5 H5         11.8036    9.2692   21.9944 H       1  lig         0.0877
      6 H6         11.0661   10.5858   21.1381 H       1  lig         0.0877
      7 H7         10.7435    9.9817   24.1183 H       1  lig         0.0966
      8 H8          8.6859   10.8464   23.1158 H       1  lig         0.4431
      9 H9          9.3749   12.0432   24.0355 H       1  lig         0.4431
     10 H10         9.5365   12.0785   22.3781 H       1  lig         0.4431
     11 H11         6.1168    6.3624   21.5566 H       1  lig         0.4214
     12 C1          9.0288    9.1453   20.4848 C.ar    1  lig        -0.0999
     13 C2          9.3645    7.9369   22.5071 C.ar    1  lig        -0.0999
     14 C3          7.9728    8.3205   20.2106 C.ar    1  lig        -0.1787
     15 C4          8.3249    7.0729   22.2206 C.ar    1  lig        -0.1787
     16 C5          9.7341    8.9525   21.6329 C.ar    1  lig        -0.1394
     17 C6          7.6331    7.2789   21.0328 C.ar    1  lig         0.1292
     18 C7         11.9782   11.5532   23.4454 C.2     1  lig         0.9321
     19 C8         10.8921    9.8772   21.9569 C.3     1  lig        -0.0452
     20 C9         10.7720   10.6604   23.2646 C.3     1  lig        -0.0740
     21 N1          9.5320   11.4335   23.2075 N.4     1  lig        -0.8252
     22 O1         12.8507   11.4147   22.5909 O.co2   1  lig        -0.7573
     23 O2         12.1097   12.3595   24.4105 O.co2   1  lig        -0.7573
     24 O3          6.6272    6.5638   20.7196 O.3     1  lig        -0.4913
@<TRIPOS>BOND
     1     1    12    1
     2     2    13    1
     3     3    14    1
     4     4    15    1
     5     5    19    1
     6     6    19    1
     7     7    20    1
     8     8    21    1
     9     9    21    1
    10    10    21    1
    11    11    24    1
    12    12    14   ar
    13    12    16   ar
    14    13    15   ar
    15    13    16   ar
    16    14    17   ar
    17    15    17   ar
    18    16    19    1
    19    17    24    1
    20    18    20    1
    21    18    22    1
    22    18    23    1
    23    19    20    1
    24    20    21    1
@<TRIPOS>SUBSTRUCTURE
     1 lig         1 TEMP              0 ****  ****    0 ROOT


########## Name:		ligand
########## HA_RMSDs:		12.5224
########## HA_RMSDh:		12.4367
########## HA_RMSDm:		10.2630
########## Cluster Size:	1
##########    Grid Score:          -22.102654
##########      Grid_vdw:          -18.100143
##########       Grid_es:           -4.002510
##########    Int_energy:            2.034125

@<TRIPOS>MOLECULE
ligand
 24 24 1 0 0
SMALL
No Charge or Current Charge


@<TRIPOS>ATOM
      1 H1         12.3899   10.2894   21.4034 H       1  lig         0.1340
      2 H2          8.9582    9.9563   23.9190 H       1  lig         0.1340
      3 H3         11.1688    9.1217   19.6443 H       1  lig         0.1475
      4 H4          7.7364    8.7325   22.1643 H       1  lig         0.1475
      5 H5         11.9591   10.1682   24.5308 H       1  lig         0.0877
      6 H6         12.3582   11.4685   23.4535 H       1  lig         0.0877
      7 H7          9.6911   11.4432   24.9333 H       1  lig         0.0966
      8 H8         10.0120   12.9790   23.0559 H       1  lig         0.4431
      9 H9          9.9838   13.8564   24.4638 H       1  lig         0.4431
     10 H10        11.4393   13.5310   23.7222 H       1  lig         0.4431
     11 H11         9.1990    8.6190   18.9675 H       1  lig         0.4214
     12 C1         11.3738    9.9483   21.5852 C.ar    1  lig        -0.0999
     13 C2          9.4465    9.7577   22.9678 C.ar    1  lig        -0.0999
     14 C3         10.6849    9.2981   20.5986 C.ar    1  lig        -0.1787
     15 C4          8.7553    9.0648   21.9924 C.ar    1  lig        -0.1787
     16 C5         10.7587   10.1754   22.7780 C.ar    1  lig        -0.1394
     17 C6          9.4126    8.8286   20.7907 C.ar    1  lig         0.1292
     18 C7         11.3501   12.1232   26.0433 C.2     1  lig         0.9321
     19 C8         11.5067   10.9167   23.8698 C.3     1  lig        -0.0452
     20 C9         10.6691   11.8753   24.7168 C.3     1  lig        -0.0740
     21 N1         10.5040   13.1129   23.9553 N.4     1  lig        -0.8252
     22 O1         11.1209   11.2754   26.9031 O.co2   1  lig        -0.7573
     23 O2         12.0741   13.1333   26.2767 O.co2   1  lig        -0.7573
     24 O3          8.8291    8.2470   19.8198 O.3     1  lig        -0.4913
@<TRIPOS>BOND
     1     1    12    1
     2     2    13    1
     3     3    14    1
     4     4    15    1
     5     5    19    1
     6     6    19    1
     7     7    20    1
     8     8    21    1
     9     9    21    1
    10    10    21    1
    11    11    24    1
    12    12    14   ar
    13    12    16   ar
    14    13    15   ar
    15    13    16   ar
    16    14    17   ar
    17    15    17   ar
    18    16    19    1
    19    17    24    1
    20    18    20    1
    21    18    22    1
    22    18    23    1
    23    19    20    1
    24    20    21    1
@<TRIPOS>SUBSTRUCTURE
     1 lig         1 TEMP              0 ****  ****    0 ROOT


########## Name:		ligand
########## HA_RMSDs:		12.7601
########## HA_RMSDh:		12.7281
########## HA_RMSDm:		10.5827
########## Cluster Size:	2
##########    Grid Score:          -22.071201
##########      Grid_vdw:          -17.261335
##########       Grid_es:           -4.809867
##########    Int_energy:            3.426641

@<TRIPOS>MOLECULE
ligand
 24 24 1 0 0
SMALL
No Charge or Current Charge


@<TRIPOS>ATOM
      1 H1          9.2650    9.7600   23.9803 H       1  lig         0.1340
      2 H2         10.1504    9.5647   19.8097 H       1  lig         0.1340
      3 H3          7.2930    8.3790   23.5894 H       1  lig         0.1475
      4 H4          8.1330    8.2113   19.4002 H       1  lig         0.1475
      5 H5         11.0927   11.3772   21.3727 H       1  lig         0.0877
      6 H6         10.9664   11.1769   23.0916 H       1  lig         0.0877
      7 H7         13.1753   10.4732   22.5928 H       1  lig         0.0966
      8 H8         12.8300   10.3471   20.1738 H       1  lig         0.4431
      9 H9         13.5840    8.9578   20.6779 H       1  lig         0.4431
     10 H10        11.9511    8.9392   20.3499 H       1  lig         0.4431
     11 H11         5.9984    7.5766   22.2093 H       1  lig         0.4214
     12 C1          9.0251    9.4329   22.9717 C.ar    1  lig        -0.0999
     13 C2          9.5035    9.3045   20.6443 C.ar    1  lig        -0.0999
     14 C3          7.9229    8.6538   22.7505 C.ar    1  lig        -0.1787
     15 C4          8.3708    8.5506   20.4033 C.ar    1  lig        -0.1787
     16 C5          9.8177    9.7673   21.9168 C.ar    1  lig        -0.1394
     17 C6          7.5679    8.2392   21.4943 C.ar    1  lig         0.1292
     18 C7         12.2698    8.6192   23.0282 C.2     1  lig         0.9321
     19 C8         11.0552   10.6113   22.1562 C.3     1  lig        -0.0452
     20 C9         12.3842    9.8552   22.1657 C.3     1  lig        -0.0740
     21 N1         12.7140    9.5187   20.7813 N.4     1  lig        -0.8252
     22 O1         12.6173    8.7760   24.1967 O.co2   1  lig        -0.7573
     23 O2         11.8810    7.4982   22.5911 O.co2   1  lig        -0.7573
     24 O3          6.5369    7.5025   21.3690 O.3     1  lig        -0.4913
@<TRIPOS>BOND
     1     1    12    1
     2     2    13    1
     3     3    14    1
     4     4    15    1
     5     5    19    1
     6     6    19    1
     7     7    20    1
     8     8    21    1
     9     9    21    1
    10    10    21    1
    11    11    24    1
    12    12    14   ar
    13    12    16   ar
    14    13    15   ar
    15    13    16   ar
    16    14    17   ar
    17    15    17   ar
    18    16    19    1
    19    17    24    1
    20    18    20    1
    21    18    22    1
    22    18    23    1
    23    19    20    1
    24    20    21    1
@<TRIPOS>SUBSTRUCTURE
     1 lig         1 TEMP              0 ****  ****    0 ROOT


########## Name:		ligand
########## HA_RMSDs:		13.1582
########## HA_RMSDh:		13.1519
########## HA_RMSDm:		11.3527
########## Cluster Size:	2
##########    Grid Score:          -22.046011
##########      Grid_vdw:          -21.035408
##########       Grid_es:           -1.010602
##########    Int_energy:            3.027848

@<TRIPOS>MOLECULE
ligand
 24 24 1 0 0
SMALL
No Charge or Current Charge


@<TRIPOS>ATOM
      1 H1          8.1334    8.3261   23.2155 H       1  lig         0.1340
      2 H2         11.2142    9.3400   20.4413 H       1  lig         0.1340
      3 H3          8.5174   10.4449   24.3610 H       1  lig         0.1475
      4 H4         11.6414   11.4590   21.6231 H       1  lig         0.1475
      5 H5         10.3116    7.1591   20.4489 H       1  lig         0.0877
      6 H6          9.3442    6.5498   21.7541 H       1  lig         0.0877
      7 H7          8.4309    6.8383   19.1913 H       1  lig         0.0966
      8 H8          8.5572    9.2757   19.3638 H       1  lig         0.4431
      9 H9          6.9623    8.8303   19.2596 H       1  lig         0.4431
     10 H10         7.6080    9.2502   20.7365 H       1  lig         0.4431
     11 H11        11.0986   12.5765   23.4560 H       1  lig         0.4214
     12 C1          8.9088    9.0001   22.8603 C.ar    1  lig        -0.0999
     13 C2         10.6249    9.5892   21.3207 C.ar    1  lig        -0.0999
     14 C3          9.1226   10.1913   23.4975 C.ar    1  lig        -0.1787
     15 C4         10.8765   10.7769   21.9805 C.ar    1  lig        -0.1787
     16 C5          9.6646    8.6907   21.7714 C.ar    1  lig        -0.1394
     17 C6         10.1044   11.0602   23.1009 C.ar    1  lig         0.1292
     18 C7          7.0722    6.5879   20.7844 C.2     1  lig         0.9321
     19 C8          9.4185    7.3825   21.0442 C.3     1  lig        -0.0452
     20 C9          8.1971    7.3522   20.1248 C.3     1  lig        -0.0740
     21 N1          7.8175    8.7363   19.8443 N.4     1  lig        -0.8252
     22 O1          7.2626    5.3775   20.8805 O.co2   1  lig        -0.7573
     23 O2          6.0009    7.1297   21.1814 O.co2   1  lig        -0.7573
     24 O3         10.2330   12.1577   23.7336 O.3     1  lig        -0.4913
@<TRIPOS>BOND
     1     1    12    1
     2     2    13    1
     3     3    14    1
     4     4    15    1
     5     5    19    1
     6     6    19    1
     7     7    20    1
     8     8    21    1
     9     9    21    1
    10    10    21    1
    11    11    24    1
    12    12    14   ar
    13    12    16   ar
    14    13    15   ar
    15    13    16   ar
    16    14    17   ar
    17    15    17   ar
    18    16    19    1
    19    17    24    1
    20    18    20    1
    21    18    22    1
    22    18    23    1
    23    19    20    1
    24    20    21    1
@<TRIPOS>SUBSTRUCTURE
     1 lig         1 TEMP              0 ****  ****    0 ROOT


########## Name:		ligand
########## HA_RMSDs:		13.3876
########## HA_RMSDh:		13.2735
########## HA_RMSDm:		10.8676
########## Cluster Size:	1
##########    Grid Score:          -22.004749
##########      Grid_vdw:          -16.810768
##########       Grid_es:           -5.193982
##########    Int_energy:            4.493000

@<TRIPOS>MOLECULE
ligand
 24 24 1 0 0
SMALL
No Charge or Current Charge


@<TRIPOS>ATOM
      1 H1          9.9221    9.7043   20.3644 H       1  lig         0.1340
      2 H2          7.8036    8.6799   23.9251 H       1  lig         0.1340
      3 H3          8.7606    7.9041   19.1986 H       1  lig         0.1475
      4 H4          6.6640    6.8283   22.7666 H       1  lig         0.1475
      5 H5          9.3367   11.3619   22.4908 H       1  lig         0.0877
      6 H6          9.3184   10.4865   23.9888 H       1  lig         0.0877
      7 H7         11.5955   10.8310   23.8334 H       1  lig         0.0966
      8 H8         11.3691   12.0849   21.7446 H       1  lig         0.4431
      9 H9         12.6788   11.0739   21.6204 H       1  lig         0.4431
     10 H10        11.2451   10.6635   20.8785 H       1  lig         0.4431
     11 H11         6.6407    5.7145   20.8565 H       1  lig         0.4214
     12 C1          9.2159    9.0780   20.9037 C.ar    1  lig        -0.0999
     13 C2          8.0182    8.4942   22.8753 C.ar    1  lig        -0.0999
     14 C3          8.5591    8.0714   20.2511 C.ar    1  lig        -0.1787
     15 C4          7.3789    7.4491   22.2361 C.ar    1  lig        -0.1787
     16 C5          8.9525    9.2898   22.2222 C.ar    1  lig        -0.1394
     17 C6          7.6800    7.2417   20.8952 C.ar    1  lig         0.1292
     18 C7         11.6534    8.9277   22.9272 C.2     1  lig         0.9321
     19 C8          9.6585   10.4191   22.9483 C.3     1  lig        -0.0452
     20 C9         11.1866   10.3653   22.9355 C.3     1  lig        -0.0740
     21 N1         11.6469   11.0891   21.7511 N.4     1  lig        -0.8252
     22 O1         11.5111    8.3368   23.9955 O.co2   1  lig        -0.7573
     23 O2         12.1801    8.3720   21.9209 O.co2   1  lig        -0.7573
     24 O3          7.0944    6.3367   20.2172 O.3     1  lig        -0.4913
@<TRIPOS>BOND
     1     1    12    1
     2     2    13    1
     3     3    14    1
     4     4    15    1
     5     5    19    1
     6     6    19    1
     7     7    20    1
     8     8    21    1
     9     9    21    1
    10    10    21    1
    11    11    24    1
    12    12    14   ar
    13    12    16   ar
    14    13    15   ar
    15    13    16   ar
    16    14    17   ar
    17    15    17   ar
    18    16    19    1
    19    17    24    1
    20    18    20    1
    21    18    22    1
    22    18    23    1
    23    19    20    1
    24    20    21    1
@<TRIPOS>SUBSTRUCTURE
     1 lig         1 TEMP              0 ****  ****    0 ROOT


########## Name:		ligand
########## HA_RMSDs:		13.6681
########## HA_RMSDh:		13.6345
########## HA_RMSDm:		11.3860
########## Cluster Size:	12
##########    Grid Score:          -21.972322
##########      Grid_vdw:          -19.041662
##########       Grid_es:           -2.930661
##########    Int_energy:            2.064989

@<TRIPOS>MOLECULE
ligand
 24 24 1 0 0
SMALL
No Charge or Current Charge


@<TRIPOS>ATOM
      1 H1          7.9410    9.4855   24.2635 H       1  lig         0.1340
      2 H2         10.3418    9.6733   20.7398 H       1  lig         0.1340
      3 H3          6.3413    8.0957   23.0559 H       1  lig         0.1475
      4 H4          8.7057    8.3116   19.4997 H       1  lig         0.1475
      5 H5         10.7428    9.8880   24.0478 H       1  lig         0.0877
      6 H6         11.0347   10.8763   22.6518 H       1  lig         0.0877
      7 H7          8.6281   11.9195   23.7702 H       1  lig         0.0966
      8 H8         10.4649   13.1234   22.6916 H       1  lig         0.4431
      9 H9         10.2017   13.7842   24.1905 H       1  lig         0.4431
     10 H10        11.4849   12.7478   23.9583 H       1  lig         0.4431
     11 H11         5.7486    7.3037   21.2804 H       1  lig         0.4214
     12 C1          8.1173    9.2411   23.2191 C.ar    1  lig        -0.0999
     13 C2          9.4437    9.3262   21.2452 C.ar    1  lig        -0.0999
     14 C3          7.2247    8.4574   22.5410 C.ar    1  lig        -0.1787
     15 C4          8.5288    8.5686   20.5392 C.ar    1  lig        -0.1787
     16 C5          9.2290    9.6848   22.5711 C.ar    1  lig        -0.1394
     17 C6          7.3926    8.1445   21.2182 C.ar    1  lig         0.1292
     18 C7          9.6757   11.4953   25.5506 C.2     1  lig         0.9321
     19 C8         10.2364   10.5348   23.3218 C.3     1  lig        -0.0452
     20 C9          9.6655   11.7461   24.0600 C.3     1  lig        -0.0740
     21 N1         10.4784   12.9081   23.7027 N.4     1  lig        -0.8252
     22 O1          8.5690   11.5330   26.0839 O.co2   1  lig        -0.7573
     23 O2         10.7318   11.2937   26.2159 O.co2   1  lig        -0.7573
     24 O3          6.5274    7.3964   20.6587 O.3     1  lig        -0.4913
@<TRIPOS>BOND
     1     1    12    1
     2     2    13    1
     3     3    14    1
     4     4    15    1
     5     5    19    1
     6     6    19    1
     7     7    20    1
     8     8    21    1
     9     9    21    1
    10    10    21    1
    11    11    24    1
    12    12    14   ar
    13    12    16   ar
    14    13    15   ar
    15    13    16   ar
    16    14    17   ar
    17    15    17   ar
    18    16    19    1
    19    17    24    1
    20    18    20    1
    21    18    22    1
    22    18    23    1
    23    19    20    1
    24    20    21    1
@<TRIPOS>SUBSTRUCTURE
     1 lig         1 TEMP              0 ****  ****    0 ROOT


########## Name:		ligand
########## HA_RMSDs:		13.3524
########## HA_RMSDh:		13.3002
########## HA_RMSDm:		11.2347
########## Cluster Size:	1
##########    Grid Score:          -21.965294
##########      Grid_vdw:          -19.005022
##########       Grid_es:           -2.960272
##########    Int_energy:            6.565265

@<TRIPOS>MOLECULE
ligand
 24 24 1 0 0
SMALL
No Charge or Current Charge


@<TRIPOS>ATOM
      1 H1          9.3702    7.5705   23.4553 H       1  lig         0.1340
      2 H2          8.6625    9.8594   19.9232 H       1  lig         0.1340
      3 H3          7.6817    5.9736   22.7153 H       1  lig         0.1475
      4 H4          6.9207    8.2771   19.1941 H       1  lig         0.1475
      5 H5          9.7405   10.8199   22.1130 H       1  lig         0.0877
      6 H6         10.3887    9.6915   23.2607 H       1  lig         0.0877
      7 H7         11.8956   10.7782   21.3073 H       1  lig         0.0966
      8 H8         10.5250    9.7789   19.5438 H       1  lig         0.4431
      9 H9         12.0388    9.1019   19.4908 H       1  lig         0.4431
     10 H10        10.7792    8.2561   20.1781 H       1  lig         0.4431
     11 H11         6.8251    5.3004   20.4018 H       1  lig         0.4214
     12 C1          8.8368    7.7403   22.5235 C.ar    1  lig        -0.0999
     13 C2          8.4311    8.9968   20.5438 C.ar    1  lig        -0.0999
     14 C3          7.8934    6.8436   22.1034 C.ar    1  lig        -0.1787
     15 C4          7.4479    8.1187   20.1295 C.ar    1  lig        -0.1787
     16 C5          9.1054    8.8258   21.7473 C.ar    1  lig        -0.1394
     17 C6          7.1790    7.0292   20.9495 C.ar    1  lig         0.1292
     18 C7         12.5024    8.9477   22.1604 C.2     1  lig         0.9321
     19 C8         10.1670    9.8132   22.1935 C.3     1  lig        -0.0452
     20 C9         11.4813    9.7745   21.4131 C.3     1  lig        -0.0740
     21 N1         11.1974    9.2161   20.0916 N.4     1  lig        -0.8252
     22 O1         12.1105    7.8330   22.4986 O.co2   1  lig        -0.7573
     23 O2         13.6597    9.3661   22.4511 O.co2   1  lig        -0.7573
     24 O3          6.3283    6.1427   20.6152 O.3     1  lig        -0.4913
@<TRIPOS>BOND
     1     1    12    1
     2     2    13    1
     3     3    14    1
     4     4    15    1
     5     5    19    1
     6     6    19    1
     7     7    20    1
     8     8    21    1
     9     9    21    1
    10    10    21    1
    11    11    24    1
    12    12    14   ar
    13    12    16   ar
    14    13    15   ar
    15    13    16   ar
    16    14    17   ar
    17    15    17   ar
    18    16    19    1
    19    17    24    1
    20    18    20    1
    21    18    22    1
    22    18    23    1
    23    19    20    1
    24    20    21    1
@<TRIPOS>SUBSTRUCTURE
     1 lig         1 TEMP              0 ****  ****    0 ROOT


########## Name:		ligand
########## HA_RMSDs:		13.4732
########## HA_RMSDh:		13.4427
########## HA_RMSDm:		11.5882
########## Cluster Size:	2
##########    Grid Score:          -21.945814
##########      Grid_vdw:          -17.986818
##########       Grid_es:           -3.958995
##########    Int_energy:            3.401495

@<TRIPOS>MOLECULE
ligand
 24 24 1 0 0
SMALL
No Charge or Current Charge


@<TRIPOS>ATOM
      1 H1          9.9817    7.6806   19.4412 H       1  lig         0.1340
      2 H2          7.7854    9.2878   22.7289 H       1  lig         0.1340
      3 H3         11.7652    9.2806   19.8973 H       1  lig         0.1475
      4 H4          9.5606   10.9395   23.1641 H       1  lig         0.1475
      5 H5          6.7178    7.9508   20.6827 H       1  lig         0.0877
      6 H6          7.7935    6.9180   19.7959 H       1  lig         0.0877
      7 H7          6.9904    5.4290   21.4014 H       1  lig         0.0966
      8 H8          5.7141    7.1434   22.5925 H       1  lig         0.4431
      9 H9          6.5118    6.2042   23.7036 H       1  lig         0.4431
     10 H10         7.1075    7.7106   23.3154 H       1  lig         0.4431
     11 H11        12.2730   11.0730   20.8569 H       1  lig         0.4214
     12 C1          9.8742    8.3928   20.2554 C.ar    1  lig        -0.0999
     13 C2          8.6704    9.2994   22.0971 C.ar    1  lig        -0.0999
     14 C3         10.8751    9.2875   20.5168 C.ar    1  lig        -0.1787
     15 C4          9.6575   10.2339   22.3450 C.ar    1  lig        -0.1787
     16 C5          8.7631    8.3993   21.0417 C.ar    1  lig        -0.1394
     17 C6         10.7728   10.2191   21.5157 C.ar    1  lig         0.1292
     18 C7          8.8312    5.8524   22.3389 C.2     1  lig         0.9321
     19 C8          7.6582    7.3950   20.7741 C.3     1  lig        -0.0452
     20 C9          7.4812    6.3038   21.8304 C.3     1  lig        -0.0740
     21 N1          6.6564    6.8549   22.9050 N.4     1  lig        -0.8252
     22 O1          9.4112    5.0506   21.6100 O.co2   1  lig        -0.7573
     23 O2          9.3244    6.2338   23.4390 O.co2   1  lig        -0.7573
     24 O3         11.7528   11.0087   21.7095 O.3     1  lig        -0.4913
@<TRIPOS>BOND
     1     1    12    1
     2     2    13    1
     3     3    14    1
     4     4    15    1
     5     5    19    1
     6     6    19    1
     7     7    20    1
     8     8    21    1
     9     9    21    1
    10    10    21    1
    11    11    24    1
    12    12    14   ar
    13    12    16   ar
    14    13    15   ar
    15    13    16   ar
    16    14    17   ar
    17    15    17   ar
    18    16    19    1
    19    17    24    1
    20    18    20    1
    21    18    22    1
    22    18    23    1
    23    19    20    1
    24    20    21    1
@<TRIPOS>SUBSTRUCTURE
     1 lig         1 TEMP              0 ****  ****    0 ROOT


########## Name:		ligand
########## HA_RMSDs:		12.4916
########## HA_RMSDh:		12.4114
########## HA_RMSDm:		10.5155
########## Cluster Size:	1
##########    Grid Score:          -21.918159
##########      Grid_vdw:          -18.468702
##########       Grid_es:           -3.449456
##########    Int_energy:            4.911394

@<TRIPOS>MOLECULE
ligand
 24 24 1 0 0
SMALL
No Charge or Current Charge


@<TRIPOS>ATOM
      1 H1          8.2835    9.9887   22.9699 H       1  lig         0.1340
      2 H2         11.7263   12.3451   23.8701 H       1  lig         0.1340
      3 H3          9.4876    9.0146   21.0857 H       1  lig         0.1475
      4 H4         12.9308   11.4021   21.9390 H       1  lig         0.1475
      5 H5          9.4083   12.9129   24.7333 H       1  lig         0.0877
      6 H6          8.0987   11.7885   24.5569 H       1  lig         0.0877
      7 H7          9.6752   10.1604   25.9884 H       1  lig         0.0966
      8 H8          7.5041   11.0790   26.6434 H       1  lig         0.4431
      9 H9          8.5356   11.1725   27.9396 H       1  lig         0.4431
     10 H10         8.2147   12.5365   27.0389 H       1  lig         0.4431
     11 H11        12.2292   10.3001   19.8119 H       1  lig         0.4214
     12 C1          9.2983   10.3116   22.7514 C.ar    1  lig        -0.0999
     13 C2         11.2317   11.6102   23.2393 C.ar    1  lig        -0.0999
     14 C3          9.9777    9.7630   21.6988 C.ar    1  lig        -0.1787
     15 C4         11.9132   11.0922   22.1546 C.ar    1  lig        -0.1787
     16 C5          9.9212   11.2437   23.5234 C.ar    1  lig        -0.1394
     17 C6         11.2480   10.1567   21.3708 C.ar    1  lig         0.1292
     18 C7         10.8018   11.8345   26.6010 C.2     1  lig         0.9321
     19 C8          9.1838   11.8402   24.7072 C.3     1  lig        -0.0452
     20 C9          9.5183   11.2368   26.0718 C.3     1  lig        -0.0740
     21 N1          8.3907   11.5033   26.9640 N.4     1  lig        -0.8252
     22 O1         10.9357   13.0364   26.3818 O.co2   1  lig        -0.7573
     23 O2         11.6914   11.1601   27.1947 O.co2   1  lig        -0.7573
     24 O3         11.8225    9.5888   20.3866 O.3     1  lig        -0.4913
@<TRIPOS>BOND
     1     1    12    1
     2     2    13    1
     3     3    14    1
     4     4    15    1
     5     5    19    1
     6     6    19    1
     7     7    20    1
     8     8    21    1
     9     9    21    1
    10    10    21    1
    11    11    24    1
    12    12    14   ar
    13    12    16   ar
    14    13    15   ar
    15    13    16   ar
    16    14    17   ar
    17    15    17   ar
    18    16    19    1
    19    17    24    1
    20    18    20    1
    21    18    22    1
    22    18    23    1
    23    19    20    1
    24    20    21    1
@<TRIPOS>SUBSTRUCTURE
     1 lig         1 TEMP              0 ****  ****    0 ROOT


########## Name:		ligand
########## HA_RMSDs:		13.6450
########## HA_RMSDh:		13.5884
########## HA_RMSDm:		9.4875
########## Cluster Size:	1
##########    Grid Score:          -21.891468
##########      Grid_vdw:          -20.468529
##########       Grid_es:           -1.422940
##########    Int_energy:            3.208615

@<TRIPOS>MOLECULE
ligand
 24 24 1 0 0
SMALL
No Charge or Current Charge


@<TRIPOS>ATOM
      1 H1         17.8685   17.3008   30.1062 H       1  lig         0.1340
      2 H2         13.6956   18.1722   30.3131 H       1  lig         0.1340
      3 H3         17.6620   17.0626   27.6876 H       1  lig         0.1475
      4 H4         13.4699   17.8840   27.8769 H       1  lig         0.1475
      5 H5         16.9393   18.2283   32.0792 H       1  lig         0.0877
      6 H6         15.2796   18.7140   32.2212 H       1  lig         0.0877
      7 H7         15.7068   16.8695   33.7647 H       1  lig         0.0966
      8 H8         17.5790   15.9054   32.5188 H       1  lig         0.4431
      9 H9         16.4620   14.7135   32.8099 H       1  lig         0.4431
     10 H10        16.5465   15.4161   31.3020 H       1  lig         0.4431
     11 H11        16.4807   17.1313   26.0519 H       1  lig         0.4214
     12 C1         16.8985   17.4249   29.6314 C.ar    1  lig        -0.0999
     13 C2         14.5718   17.9156   29.7224 C.ar    1  lig        -0.0999
     14 C3         16.7809   17.2972   28.2747 C.ar    1  lig        -0.1787
     15 C4         14.4337   17.7495   28.3576 C.ar    1  lig        -0.1787
     16 C5         15.7914   17.7287   30.3628 C.ar    1  lig        -0.1394
     17 C6         15.5753   17.4203   27.6363 C.ar    1  lig         0.1292
     18 C7         14.2075   16.1813   32.4512 C.2     1  lig         0.9321
     19 C8         15.9169   17.8955   31.8652 C.3     1  lig        -0.0452
     20 C9         15.6234   16.6483   32.6996 C.3     1  lig        -0.0740
     21 N1         16.6016   15.6259   32.3301 N.4     1  lig        -0.8252
     22 O1         13.3678   16.6684   33.2051 O.co2   1  lig        -0.7573
     23 O2         13.8988   15.3337   31.5651 O.co2   1  lig        -0.7573
     24 O3         15.5472   17.3042   26.3686 O.3     1  lig        -0.4913
@<TRIPOS>BOND
     1     1    12    1
     2     2    13    1
     3     3    14    1
     4     4    15    1
     5     5    19    1
     6     6    19    1
     7     7    20    1
     8     8    21    1
     9     9    21    1
    10    10    21    1
    11    11    24    1
    12    12    14   ar
    13    12    16   ar
    14    13    15   ar
    15    13    16   ar
    16    14    17   ar
    17    15    17   ar
    18    16    19    1
    19    17    24    1
    20    18    20    1
    21    18    22    1
    22    18    23    1
    23    19    20    1
    24    20    21    1
@<TRIPOS>SUBSTRUCTURE
     1 lig         1 TEMP              0 ****  ****    0 ROOT


########## Name:		ligand
########## HA_RMSDs:		12.6405
########## HA_RMSDh:		12.5656
########## HA_RMSDm:		10.6216
########## Cluster Size:	4
##########    Grid Score:          -21.877645
##########      Grid_vdw:          -17.962790
##########       Grid_es:           -3.914856
##########    Int_energy:            3.663187

@<TRIPOS>MOLECULE
ligand
 24 24 1 0 0
SMALL
No Charge or Current Charge


@<TRIPOS>ATOM
      1 H1         11.9565    9.4508   21.4416 H       1  lig         0.1340
      2 H2          8.3575    9.3284   23.7323 H       1  lig         0.1340
      3 H3         10.7081    8.6518   19.5046 H       1  lig         0.1475
      4 H4          7.1007    8.4737   21.7935 H       1  lig         0.1475
      5 H5         10.3239    9.9279   24.7736 H       1  lig         0.0877
      6 H6         11.8057    9.2333   24.1969 H       1  lig         0.0877
      7 H7         11.9094   11.5169   22.7431 H       1  lig         0.0966
      8 H8         13.5145   10.7201   24.4091 H       1  lig         0.4431
      9 H9         13.2371   12.3357   24.6657 H       1  lig         0.4431
     10 H10        12.5053   11.2058   25.6466 H       1  lig         0.4431
     11 H11         8.5725    8.6695   18.7076 H       1  lig         0.4214
     12 C1         10.8952    9.2347   21.5338 C.ar    1  lig        -0.0999
     13 C2          8.8753    9.1657   22.7900 C.ar    1  lig        -0.0999
     14 C3         10.1915    8.7917   20.4479 C.ar    1  lig        -0.1787
     15 C4          8.1631    8.6798   21.7102 C.ar    1  lig        -0.1787
     16 C5         10.2402    9.4177   22.7130 C.ar    1  lig        -0.1394
     17 C6          8.8591    8.4831   20.5233 C.ar    1  lig         0.1292
     18 C7         10.5762   12.3748   24.1335 C.2     1  lig         0.9321
     19 C8         11.0075    9.9312   23.9165 C.3     1  lig        -0.0452
     20 C9         11.6081   11.3302   23.7749 C.3     1  lig        -0.0740
     21 N1         12.7768   11.4030   24.6509 N.4     1  lig        -0.8252
     22 O1          9.4170   12.0604   23.8726 O.co2   1  lig        -0.7573
     23 O2         10.8677   13.4996   24.6321 O.co2   1  lig        -0.7573
     24 O3          8.2678    8.0916   19.4658 O.3     1  lig        -0.4913
@<TRIPOS>BOND
     1     1    12    1
     2     2    13    1
     3     3    14    1
     4     4    15    1
     5     5    19    1
     6     6    19    1
     7     7    20    1
     8     8    21    1
     9     9    21    1
    10    10    21    1
    11    11    24    1
    12    12    14   ar
    13    12    16   ar
    14    13    15   ar
    15    13    16   ar
    16    14    17   ar
    17    15    17   ar
    18    16    19    1
    19    17    24    1
    20    18    20    1
    21    18    22    1
    22    18    23    1
    23    19    20    1
    24    20    21    1
@<TRIPOS>SUBSTRUCTURE
     1 lig         1 TEMP              0 ****  ****    0 ROOT


########## Name:		ligand
########## HA_RMSDs:		12.5789
########## HA_RMSDh:		12.4787
########## HA_RMSDm:		10.3658
########## Cluster Size:	7
##########    Grid Score:          -21.874760
##########      Grid_vdw:          -18.911057
##########       Grid_es:           -2.963703
##########    Int_energy:            2.122310

@<TRIPOS>MOLECULE
ligand
 24 24 1 0 0
SMALL
No Charge or Current Charge


@<TRIPOS>ATOM
      1 H1         10.4662    9.5378   19.8685 H       1  lig         0.1340
      2 H2          9.1719    9.9418   23.9153 H       1  lig         0.1340
      3 H3          8.4864    8.1898   19.4078 H       1  lig         0.1475
      4 H4          7.1960    8.5395   23.4694 H       1  lig         0.1475
      5 H5         11.6303   10.9234   21.2525 H       1  lig         0.0877
      6 H6         10.8828   11.6188   22.6554 H       1  lig         0.0877
      7 H7         11.8275    9.7620   24.0777 H       1  lig         0.0966
      8 H8         13.0312   11.8612   23.7155 H       1  lig         0.4431
      9 H9         14.1332   10.6247   23.8134 H       1  lig         0.4431
     10 H10        13.7236   11.2504   22.3250 H       1  lig         0.4431
     11 H11         5.9395    7.9136   21.5842 H       1  lig         0.4214
     12 C1          9.7614    9.3215   20.6673 C.ar    1  lig        -0.0999
     13 C2          9.0169    9.5397   22.9169 C.ar    1  lig        -0.0999
     14 C3          8.6476    8.5704   20.4105 C.ar    1  lig        -0.1787
     15 C4          7.9092    8.7488   22.6784 C.ar    1  lig        -0.1787
     16 C5          9.9543    9.8046   21.9252 C.ar    1  lig        -0.1394
     17 C6          7.7456    8.2517   21.3908 C.ar    1  lig         0.1292
     18 C7         12.7270    8.7281   22.4750 C.2     1  lig         0.9321
     19 C8         11.1745   10.6583   22.2136 C.3     1  lig        -0.0452
     20 C9         12.2413   10.0155   23.1006 C.3     1  lig        -0.0740
     21 N1         13.3276   10.9815   23.2604 N.4     1  lig        -0.8252
     22 O1         12.0946    7.7275   22.8055 O.co2   1  lig        -0.7573
     23 O2         13.7224    8.6634   21.6979 O.co2   1  lig        -0.7573
     24 O3          6.7241    7.5616   21.0721 O.3     1  lig        -0.4913
@<TRIPOS>BOND
     1     1    12    1
     2     2    13    1
     3     3    14    1
     4     4    15    1
     5     5    19    1
     6     6    19    1
     7     7    20    1
     8     8    21    1
     9     9    21    1
    10    10    21    1
    11    11    24    1
    12    12    14   ar
    13    12    16   ar
    14    13    15   ar
    15    13    16   ar
    16    14    17   ar
    17    15    17   ar
    18    16    19    1
    19    17    24    1
    20    18    20    1
    21    18    22    1
    22    18    23    1
    23    19    20    1
    24    20    21    1
@<TRIPOS>SUBSTRUCTURE
     1 lig         1 TEMP              0 ****  ****    0 ROOT


########## Name:		ligand
########## HA_RMSDs:		15.5650
########## HA_RMSDh:		15.5184
########## HA_RMSDm:		13.2175
########## Cluster Size:	1
##########    Grid Score:          -21.872429
##########      Grid_vdw:          -17.112759
##########       Grid_es:           -4.759671
##########    Int_energy:            3.009629

@<TRIPOS>MOLECULE
ligand
 24 24 1 0 0
SMALL
No Charge or Current Charge


@<TRIPOS>ATOM
      1 H1          6.4564    8.7677   22.7508 H       1  lig         0.1340
      2 H2          7.3224    5.8003   19.8080 H       1  lig         0.1340
      3 H3          5.1238    7.1241   23.9637 H       1  lig         0.1475
      4 H4          5.9372    4.1494   21.0018 H       1  lig         0.1475
      5 H5          8.1515    7.9283   19.5218 H       1  lig         0.0877
      6 H6          7.1845    9.2479   20.0999 H       1  lig         0.0877
      7 H7          8.6974    9.7403   21.8977 H       1  lig         0.0966
      8 H8          9.5335   10.2852   19.6637 H       1  lig         0.4431
      9 H9         10.8191    9.8737   20.6286 H       1  lig         0.4431
     10 H10        10.2254    8.7722   19.5291 H       1  lig         0.4431
     11 H11         4.4032    4.0231   22.6558 H       1  lig         0.4214
     12 C1          6.3457    7.7619   22.3536 C.ar    1  lig        -0.0999
     13 C2          6.8215    6.0897   20.7288 C.ar    1  lig        -0.0999
     14 C3          5.6035    6.8367   23.0346 C.ar    1  lig        -0.1787
     15 C4          6.0415    5.1586   21.3875 C.ar    1  lig        -0.1787
     16 C5          6.9535    7.3935   21.1927 C.ar    1  lig        -0.1394
     17 C6          5.4158    5.5655   22.5601 C.ar    1  lig         0.1292
     18 C7          9.6463    7.8612   22.0215 C.2     1  lig         0.9321
     19 C8          7.7981    8.4061   20.4430 C.3     1  lig        -0.0452
     20 C9          9.0051    8.9579   21.2024 C.3     1  lig        -0.0740
     21 N1          9.9349    9.5104   20.2181 N.4     1  lig        -0.8252
     22 O1         10.0041    6.8803   21.3731 O.co2   1  lig        -0.7573
     23 O2          9.7817    7.9182   23.2773 O.co2   1  lig        -0.7573
     24 O3          4.7251    4.7549   23.2579 O.3     1  lig        -0.4913
@<TRIPOS>BOND
     1     1    12    1
     2     2    13    1
     3     3    14    1
     4     4    15    1
     5     5    19    1
     6     6    19    1
     7     7    20    1
     8     8    21    1
     9     9    21    1
    10    10    21    1
    11    11    24    1
    12    12    14   ar
    13    12    16   ar
    14    13    15   ar
    15    13    16   ar
    16    14    17   ar
    17    15    17   ar
    18    16    19    1
    19    17    24    1
    20    18    20    1
    21    18    22    1
    22    18    23    1
    23    19    20    1
    24    20    21    1
@<TRIPOS>SUBSTRUCTURE
     1 lig         1 TEMP              0 ****  ****    0 ROOT


########## Name:		ligand
########## HA_RMSDs:		12.6155
########## HA_RMSDh:		12.5635
########## HA_RMSDm:		10.5795
########## Cluster Size:	8
##########    Grid Score:          -21.871033
##########      Grid_vdw:          -19.095839
##########       Grid_es:           -2.775194
##########    Int_energy:            2.386295

@<TRIPOS>MOLECULE
ligand
 24 24 1 0 0
SMALL
No Charge or Current Charge


@<TRIPOS>ATOM
      1 H1          8.8687    9.9260   23.7861 H       1  lig         0.1340
      2 H2         10.4286    9.3936   19.8492 H       1  lig         0.1340
      3 H3          6.9838    8.4959   23.1936 H       1  lig         0.1475
      4 H4          8.5021    7.9891   19.2285 H       1  lig         0.1475
      5 H5         11.3637   11.0343   21.2856 H       1  lig         0.0877
      6 H6         10.6089   11.5315   22.7668 H       1  lig         0.0877
      7 H7         11.6769    9.6221   23.9822 H       1  lig         0.0966
      8 H8         12.8289   11.7666   23.7354 H       1  lig         0.4431
      9 H9         13.9553   10.5489   23.6992 H       1  lig         0.4431
     10 H10        13.4783   11.2756   22.2783 H       1  lig         0.4431
     11 H11         5.9594    7.5215   21.7229 H       1  lig         0.4214
     12 C1          8.7973    9.5134   22.7829 C.ar    1  lig        -0.0999
     13 C2          9.6522    9.1968   20.5849 C.ar    1  lig        -0.0999
     14 C3          7.7442    8.7068   22.4496 C.ar    1  lig        -0.1787
     15 C4          8.5724    8.4133   20.2251 C.ar    1  lig        -0.1787
     16 C5          9.7538    9.7674   21.8484 C.ar    1  lig        -0.1394
     17 C6          7.5997    8.1852   21.1913 C.ar    1  lig         0.1292
     18 C7         12.5326    8.7294   22.2741 C.2     1  lig         0.9321
     19 C8         10.9376   10.6417   22.2163 C.3     1  lig        -0.0452
     20 C9         12.0486    9.9563   23.0125 C.3     1  lig        -0.0740
     21 N1         13.1231   10.9295   23.2046 N.4     1  lig        -0.8252
     22 O1         11.9290    7.6947   22.5490 O.co2   1  lig        -0.7573
     23 O2         13.5003    8.7427   21.4604 O.co2   1  lig        -0.7573
     24 O3          6.6012    7.4295   20.9605 O.3     1  lig        -0.4913
@<TRIPOS>BOND
     1     1    12    1
     2     2    13    1
     3     3    14    1
     4     4    15    1
     5     5    19    1
     6     6    19    1
     7     7    20    1
     8     8    21    1
     9     9    21    1
    10    10    21    1
    11    11    24    1
    12    12    14   ar
    13    12    16   ar
    14    13    15   ar
    15    13    16   ar
    16    14    17   ar
    17    15    17   ar
    18    16    19    1
    19    17    24    1
    20    18    20    1
    21    18    22    1
    22    18    23    1
    23    19    20    1
    24    20    21    1
@<TRIPOS>SUBSTRUCTURE
     1 lig         1 TEMP              0 ****  ****    0 ROOT


########## Name:		ligand
########## HA_RMSDs:		12.3037
########## HA_RMSDh:		12.1710
########## HA_RMSDm:		8.2252
########## Cluster Size:	2
##########    Grid Score:          -21.844107
##########      Grid_vdw:          -18.216547
##########       Grid_es:           -3.627559
##########    Int_energy:            2.890589

@<TRIPOS>MOLECULE
ligand
 24 24 1 0 0
SMALL
No Charge or Current Charge


@<TRIPOS>ATOM
      1 H1         15.7029   18.0221   27.3698 H       1  lig         0.1340
      2 H2         16.8518   14.6306   29.6921 H       1  lig         0.1340
      3 H3         16.0650   16.7124   25.3443 H       1  lig         0.1475
      4 H4         17.2675   13.3177   27.6494 H       1  lig         0.1475
      5 H5         16.5600   16.7151   30.7399 H       1  lig         0.0877
      6 H6         16.5129   18.2048   29.8516 H       1  lig         0.0877
      7 H7         14.4619   17.3823   31.4029 H       1  lig         0.0966
      8 H8         14.0937   15.3856   30.0374 H       1  lig         0.4431
      9 H9         12.7778   16.3848   29.8866 H       1  lig         0.4431
     10 H10        13.9143   16.3261   28.6703 H       1  lig         0.4431
     11 H11        16.1569   14.6610   24.6207 H       1  lig         0.4214
     12 C1         16.0516   16.9952   27.4449 C.ar    1  lig        -0.0999
     13 C2         16.6885   15.0896   28.7199 C.ar    1  lig        -0.0999
     14 C3         16.2502   16.2568   26.3108 C.ar    1  lig        -0.1787
     15 C4         16.9308   14.3472   27.5800 C.ar    1  lig        -0.1787
     16 C5         16.2765   16.4157   28.6558 C.ar    1  lig        -0.1394
     17 C6         16.7123   14.9681   26.3559 C.ar    1  lig         0.1292
     18 C7         14.0831   18.7641   29.8556 C.2     1  lig         0.9321
     19 C8         16.0361   17.2195   29.9196 C.3     1  lig        -0.0452
     20 C9         14.5723   17.4107   30.3179 C.3     1  lig        -0.0740
     21 N1         13.8020   16.3236   29.7150 N.4     1  lig        -0.8252
     22 O1         14.2191   19.6665   30.6789 O.co2   1  lig        -0.7573
     23 O2         13.5449   18.9628   28.7288 O.co2   1  lig        -0.7573
     24 O3         16.8574   14.3386   25.2586 O.3     1  lig        -0.4913
@<TRIPOS>BOND
     1     1    12    1
     2     2    13    1
     3     3    14    1
     4     4    15    1
     5     5    19    1
     6     6    19    1
     7     7    20    1
     8     8    21    1
     9     9    21    1
    10    10    21    1
    11    11    24    1
    12    12    14   ar
    13    12    16   ar
    14    13    15   ar
    15    13    16   ar
    16    14    17   ar
    17    15    17   ar
    18    16    19    1
    19    17    24    1
    20    18    20    1
    21    18    22    1
    22    18    23    1
    23    19    20    1
    24    20    21    1
@<TRIPOS>SUBSTRUCTURE
     1 lig         1 TEMP              0 ****  ****    0 ROOT


########## Name:		ligand
########## HA_RMSDs:		12.9847
########## HA_RMSDh:		12.9273
########## HA_RMSDm:		10.8342
########## Cluster Size:	1
##########    Grid Score:          -21.839672
##########      Grid_vdw:          -17.089142
##########       Grid_es:           -4.750530
##########    Int_energy:            3.846656

@<TRIPOS>MOLECULE
ligand
 24 24 1 0 0
SMALL
No Charge or Current Charge


@<TRIPOS>ATOM
      1 H1         14.4825   15.4489   29.2503 H       1  lig         0.1340
      2 H2         17.8792   16.8909   31.3947 H       1  lig         0.1340
      3 H3         13.1034   15.8828   31.2147 H       1  lig         0.1475
      4 H4         16.5016   17.2848   33.3988 H       1  lig         0.1475
      5 H5         17.8950   16.6542   28.9468 H       1  lig         0.0877
      6 H6         17.6955   14.9365   29.0888 H       1  lig         0.0877
      7 H7         15.5156   15.1958   27.7006 H       1  lig         0.0966
      8 H8         17.6493   14.3782   26.8257 H       1  lig         0.4431
      9 H9         16.9265   15.3244   25.6702 H       1  lig         0.4431
     10 H10        18.1751   15.9435   26.5825 H       1  lig         0.4431
     11 H11        14.0785   16.0905   34.0959 H       1  lig         0.4214
     12 C1         14.9382   15.8451   30.1542 C.ar    1  lig        -0.0999
     13 C2         16.8169   16.6600   31.3662 C.ar    1  lig        -0.0999
     14 C3         14.1663   16.0944   31.2554 C.ar    1  lig        -0.1787
     15 C4         16.0540   16.8782   32.4975 C.ar    1  lig        -0.1787
     16 C5         16.2700   16.1212   30.2073 C.ar    1  lig        -0.1394
     17 C6         14.7008   16.5697   32.4236 C.ar    1  lig         0.1292
     18 C7         15.8947   17.2316   27.3022 C.2     1  lig         0.9321
     19 C8         17.1297   15.8701   28.9831 C.3     1  lig        -0.0452
     20 C9         16.3904   15.8454   27.6449 C.3     1  lig        -0.0740
     21 N1         17.3176   15.3385   26.6340 N.4     1  lig        -0.8252
     22 O1         14.7117   17.2859   26.9734 O.co2   1  lig        -0.7573
     23 O2         16.6325   18.2584   27.3160 O.co2   1  lig        -0.7573
     24 O3         13.9163   16.7926   33.4014 O.3     1  lig        -0.4913
@<TRIPOS>BOND
     1     1    12    1
     2     2    13    1
     3     3    14    1
     4     4    15    1
     5     5    19    1
     6     6    19    1
     7     7    20    1
     8     8    21    1
     9     9    21    1
    10    10    21    1
    11    11    24    1
    12    12    14   ar
    13    12    16   ar
    14    13    15   ar
    15    13    16   ar
    16    14    17   ar
    17    15    17   ar
    18    16    19    1
    19    17    24    1
    20    18    20    1
    21    18    22    1
    22    18    23    1
    23    19    20    1
    24    20    21    1
@<TRIPOS>SUBSTRUCTURE
     1 lig         1 TEMP              0 ****  ****    0 ROOT


########## Name:		ligand
########## HA_RMSDs:		13.0085
########## HA_RMSDh:		12.9373
########## HA_RMSDm:		8.8993
########## Cluster Size:	2
##########    Grid Score:          -21.821289
##########      Grid_vdw:          -18.476175
##########       Grid_es:           -3.345114
##########    Int_energy:            3.350947

@<TRIPOS>MOLECULE
ligand
 24 24 1 0 0
SMALL
No Charge or Current Charge


@<TRIPOS>ATOM
      1 H1         15.7639   14.5007   28.7601 H       1  lig         0.1340
      2 H2         17.1984   18.2950   30.0871 H       1  lig         0.1340
      3 H3         15.6293   15.3856   26.4912 H       1  lig         0.1475
      4 H4         17.0175   19.2100   27.8069 H       1  lig         0.1475
      5 H5         16.7362   14.7179   30.9033 H       1  lig         0.0877
      6 H6         17.4662   16.1818   31.4819 H       1  lig         0.0877
      7 H7         15.6185   15.8831   32.9257 H       1  lig         0.0966
      8 H8         14.5798   14.1195   31.5849 H       1  lig         0.4431
      9 H9         13.4171   15.2276   32.0013 H       1  lig         0.4431
     10 H10        14.0621   15.2442   30.4656 H       1  lig         0.4431
     11 H11        16.1077   16.9114   25.2160 H       1  lig         0.4214
     12 C1         16.0354   15.5353   28.5661 C.ar    1  lig        -0.0999
     13 C2         16.8407   17.6568   29.2825 C.ar    1  lig        -0.0999
     14 C3         15.9660   16.0325   27.2939 C.ar    1  lig        -0.1787
     15 C4         16.7364   18.1812   28.0083 C.ar    1  lig        -0.1787
     16 C5         16.4675   16.3486   29.5684 C.ar    1  lig        -0.1394
     17 C6         16.2740   17.3359   27.0065 C.ar    1  lig         0.1292
     18 C7         14.9057   17.4831   31.7514 C.2     1  lig         0.9321
     19 C8         16.5702   15.7989   30.9784 C.3     1  lig        -0.0452
     20 C9         15.3594   16.0468   31.8787 C.3     1  lig        -0.0740
     21 N1         14.3089   15.1115   31.4783 N.4     1  lig        -0.8252
     22 O1         15.5366   18.2824   32.4397 O.co2   1  lig        -0.7573
     23 O2         13.9362   17.8457   31.0252 O.co2   1  lig        -0.7573
     24 O3         16.2010   17.7222   25.7954 O.3     1  lig        -0.4913
@<TRIPOS>BOND
     1     1    12    1
     2     2    13    1
     3     3    14    1
     4     4    15    1
     5     5    19    1
     6     6    19    1
     7     7    20    1
     8     8    21    1
     9     9    21    1
    10    10    21    1
    11    11    24    1
    12    12    14   ar
    13    12    16   ar
    14    13    15   ar
    15    13    16   ar
    16    14    17   ar
    17    15    17   ar
    18    16    19    1
    19    17    24    1
    20    18    20    1
    21    18    22    1
    22    18    23    1
    23    19    20    1
    24    20    21    1
@<TRIPOS>SUBSTRUCTURE
     1 lig         1 TEMP              0 ****  ****    0 ROOT


########## Name:		ligand
########## HA_RMSDs:		12.4062
########## HA_RMSDh:		12.3887
########## HA_RMSDm:		10.5869
########## Cluster Size:	2
##########    Grid Score:          -21.802979
##########      Grid_vdw:          -20.579794
##########       Grid_es:           -1.223184
##########    Int_energy:            3.091222

@<TRIPOS>MOLECULE
ligand
 24 24 1 0 0
SMALL
No Charge or Current Charge


@<TRIPOS>ATOM
      1 H1         11.9010   10.1516   21.5547 H       1  lig         0.1340
      2 H2          7.9545   10.3428   23.1686 H       1  lig         0.1340
      3 H3         12.5826   11.9031   23.1093 H       1  lig         0.1475
      4 H4          8.6238   12.1468   24.7070 H       1  lig         0.1475
      5 H5          9.0970    9.5284   20.3760 H       1  lig         0.0877
      6 H6         10.3186    8.4549   20.9810 H       1  lig         0.0877
      7 H7          7.5303    8.6747   22.2224 H       1  lig         0.0966
      8 H8          9.3125    7.8271   23.6688 H       1  lig         0.4431
      9 H9          8.3166    6.5662   23.2549 H       1  lig         0.4431
     10 H10         9.7853    6.7445   22.4897 H       1  lig         0.4431
     11 H11        10.3360   13.3361   25.3516 H       1  lig         0.4214
     12 C1         11.1721   10.5843   22.2353 C.ar    1  lig        -0.0999
     13 C2          8.9806   10.7028   23.1551 C.ar    1  lig        -0.0999
     14 C3         11.5529   11.5628   23.1118 C.ar    1  lig        -0.1787
     15 C4          9.3446   11.7195   24.0171 C.ar    1  lig        -0.1787
     16 C5          9.8807   10.1541   22.2489 C.ar    1  lig        -0.1394
     17 C6         10.6639   12.1542   23.9698 C.ar    1  lig         0.1292
     18 C7          7.8298    7.2691   20.6792 C.2     1  lig         0.9321
     19 C8          9.4550    9.0528   21.2966 C.3     1  lig        -0.0452
     20 C9          8.3691    8.1090   21.8143 C.3     1  lig        -0.0740
     21 N1          8.9629    7.2811   22.8634 N.4     1  lig        -0.8252
     22 O1          8.6755    6.9039   19.8655 O.co2   1  lig        -0.7573
     23 O2          6.6054    6.9834   20.5446 O.co2   1  lig        -0.7573
     24 O3         11.0960   13.0472   24.7681 O.3     1  lig        -0.4913
@<TRIPOS>BOND
     1     1    12    1
     2     2    13    1
     3     3    14    1
     4     4    15    1
     5     5    19    1
     6     6    19    1
     7     7    20    1
     8     8    21    1
     9     9    21    1
    10    10    21    1
    11    11    24    1
    12    12    14   ar
    13    12    16   ar
    14    13    15   ar
    15    13    16   ar
    16    14    17   ar
    17    15    17   ar
    18    16    19    1
    19    17    24    1
    20    18    20    1
    21    18    22    1
    22    18    23    1
    23    19    20    1
    24    20    21    1
@<TRIPOS>SUBSTRUCTURE
     1 lig         1 TEMP              0 ****  ****    0 ROOT


########## Name:		ligand
########## HA_RMSDs:		11.8269
########## HA_RMSDh:		11.7335
########## HA_RMSDm:		7.6615
########## Cluster Size:	1
##########    Grid Score:          -21.800213
##########      Grid_vdw:          -16.577400
##########       Grid_es:           -5.222813
##########    Int_energy:            1.843324

@<TRIPOS>MOLECULE
ligand
 24 24 1 0 0
SMALL
No Charge or Current Charge


@<TRIPOS>ATOM
      1 H1         15.8620   13.7979   28.6096 H       1  lig         0.1340
      2 H2         16.5113   17.3509   26.3358 H       1  lig         0.1340
      3 H3         15.8996   12.5093   26.5392 H       1  lig         0.1475
      4 H4         16.5005   16.0618   24.2365 H       1  lig         0.1475
      5 H5         16.7686   15.9223   29.6185 H       1  lig         0.0877
      6 H6         16.6712   17.4199   28.7477 H       1  lig         0.0877
      7 H7         14.5327   15.9618   30.2342 H       1  lig         0.0966
      8 H8         13.7521   15.7999   27.9209 H       1  lig         0.4431
      9 H9         12.8294   16.9255   28.7176 H       1  lig         0.4431
     10 H10        14.0377   17.4277   27.6870 H       1  lig         0.4431
     11 H11        17.0531   13.6304   23.7515 H       1  lig         0.4214
     12 C1         15.9964   14.3066   27.6584 C.ar    1  lig        -0.0999
     13 C2         16.3660   16.2738   26.3714 C.ar    1  lig        -0.0999
     14 C3         16.0233   13.5859   26.4963 C.ar    1  lig        -0.1787
     15 C4         16.3548   15.5604   25.1880 C.ar    1  lig        -0.1787
     16 C5         16.1614   15.6565   27.6000 C.ar    1  lig        -0.1394
     17 C6         16.1650   14.1862   25.2733 C.ar    1  lig         0.1292
     18 C7         14.7858   18.0553   30.2215 C.2     1  lig         0.9321
     19 C8         16.1566   16.4613   28.8858 C.3     1  lig        -0.0452
     20 C9         14.7813   16.7280   29.4984 C.3     1  lig        -0.0740
     21 N1         13.8002   16.7074   28.4141 N.4     1  lig        -0.8252
     22 O1         15.3628   18.0455   31.3067 O.co2   1  lig        -0.7573
     23 O2         14.2183   19.0935   29.7755 O.co2   1  lig        -0.7573
     24 O3         16.1970   13.4476   24.2366 O.3     1  lig        -0.4913
@<TRIPOS>BOND
     1     1    12    1
     2     2    13    1
     3     3    14    1
     4     4    15    1
     5     5    19    1
     6     6    19    1
     7     7    20    1
     8     8    21    1
     9     9    21    1
    10    10    21    1
    11    11    24    1
    12    12    14   ar
    13    12    16   ar
    14    13    15   ar
    15    13    16   ar
    16    14    17   ar
    17    15    17   ar
    18    16    19    1
    19    17    24    1
    20    18    20    1
    21    18    22    1
    22    18    23    1
    23    19    20    1
    24    20    21    1
@<TRIPOS>SUBSTRUCTURE
     1 lig         1 TEMP              0 ****  ****    0 ROOT


########## Name:		ligand
########## HA_RMSDs:		13.0184
########## HA_RMSDh:		12.9766
########## HA_RMSDm:		10.8517
########## Cluster Size:	3
##########    Grid Score:          -21.800060
##########      Grid_vdw:          -19.622406
##########       Grid_es:           -2.177654
##########    Int_energy:            3.099011

@<TRIPOS>MOLECULE
ligand
 24 24 1 0 0
SMALL
No Charge or Current Charge


@<TRIPOS>ATOM
      1 H1         10.7031    7.0149   22.5472 H       1  lig         0.1340
      2 H2          9.1063   10.0180   19.9690 H       1  lig         0.1340
      3 H3          8.8157    5.5772   21.9819 H       1  lig         0.1475
      4 H4          7.1714    8.5905   19.4324 H       1  lig         0.1475
      5 H5         12.0854    8.8730   21.6883 H       1  lig         0.0877
      6 H6         11.3905   10.2109   20.8293 H       1  lig         0.0877
      7 H7         10.9614    9.6118   23.7997 H       1  lig         0.0966
      8 H8          9.0287   10.6541   22.7203 H       1  lig         0.4431
      9 H9          9.7778   11.7831   23.6780 H       1  lig         0.4431
     10 H10        10.0113   11.8128   22.0290 H       1  lig         0.4431
     11 H11         7.0283    5.3770   21.0442 H       1  lig         0.4214
     12 C1          9.9336    7.3744   21.8688 C.ar    1  lig        -0.0999
     13 C2          9.0289    9.0317   20.4205 C.ar    1  lig        -0.0999
     14 C3          8.8769    6.5683   21.5459 C.ar    1  lig        -0.1787
     15 C4          7.9366    8.2412   20.1184 C.ar    1  lig        -0.1787
     16 C5         10.0107    8.6139   21.3116 C.ar    1  lig        -0.1394
     17 C6          7.8715    6.9878   20.7157 C.ar    1  lig         0.1292
     18 C7         12.3525   11.0756   23.1921 C.2     1  lig         0.9321
     19 C8         11.1912    9.5059   21.6455 C.3     1  lig        -0.0452
     20 C9         11.0833   10.2899   22.9538 C.3     1  lig        -0.0740
     21 N1          9.9171   11.1663   22.8520 N.4     1  lig        -0.8252
     22 O1         12.9636   11.3835   22.1712 O.co2   1  lig        -0.7573
     23 O2         12.7823   11.3722   24.3437 O.co2   1  lig        -0.7573
     24 O3          6.9285    6.1750   20.4485 O.3     1  lig        -0.4913
@<TRIPOS>BOND
     1     1    12    1
     2     2    13    1
     3     3    14    1
     4     4    15    1
     5     5    19    1
     6     6    19    1
     7     7    20    1
     8     8    21    1
     9     9    21    1
    10    10    21    1
    11    11    24    1
    12    12    14   ar
    13    12    16   ar
    14    13    15   ar
    15    13    16   ar
    16    14    17   ar
    17    15    17   ar
    18    16    19    1
    19    17    24    1
    20    18    20    1
    21    18    22    1
    22    18    23    1
    23    19    20    1
    24    20    21    1
@<TRIPOS>SUBSTRUCTURE
     1 lig         1 TEMP              0 ****  ****    0 ROOT


########## Name:		ligand
########## HA_RMSDs:		10.3848
########## HA_RMSDh:		10.2369
########## HA_RMSDm:		8.5506
########## Cluster Size:	4
##########    Grid Score:          -21.799402
##########      Grid_vdw:          -17.282516
##########       Grid_es:           -4.516886
##########    Int_energy:            2.850071

@<TRIPOS>MOLECULE
ligand
 24 24 1 0 0
SMALL
No Charge or Current Charge


@<TRIPOS>ATOM
      1 H1         12.1422   12.2873   23.6835 H       1  lig         0.1340
      2 H2         15.4377    9.6631   22.9988 H       1  lig         0.1340
      3 H3         10.9234   11.1653   21.8934 H       1  lig         0.1475
      4 H4         14.2317    8.5583   21.1565 H       1  lig         0.1475
      5 H5         13.9051   11.9998   25.3429 H       1  lig         0.0877
      6 H6         15.3224   11.0438   25.0461 H       1  lig         0.0877
      7 H7         14.7412   13.7234   23.6843 H       1  lig         0.0966
      8 H8         16.1214   12.1763   22.3850 H       1  lig         0.4431
      9 H9         17.0874   13.3942   22.9652 H       1  lig         0.4431
     10 H10        17.1012   11.9035   23.7084 H       1  lig         0.4431
     11 H11        10.8983    9.7344   20.4697 H       1  lig         0.4214
     12 C1         12.6136   11.4764   23.1340 C.ar    1  lig        -0.0999
     13 C2         14.4360    9.9979   22.7398 C.ar    1  lig        -0.0999
     14 C3         11.9304   10.8419   22.1333 C.ar    1  lig        -0.1787
     15 C4         13.7703    9.3763   21.7006 C.ar    1  lig        -0.1787
     16 C5         13.8736   11.0606   23.4376 C.ar    1  lig        -0.1394
     17 C6         12.4928    9.8325   21.3978 C.ar    1  lig         0.1292
     18 C7         15.9487   13.6770   25.4125 C.2     1  lig         0.9321
     19 C8         14.6300   11.7428   24.5616 C.3     1  lig        -0.0452
     20 C9         15.4005   13.0054   24.1743 C.3     1  lig        -0.0740
     21 N1         16.4686   12.6105   23.2567 N.4     1  lig        -0.8252
     22 O1         16.1379   12.9218   26.3636 O.co2   1  lig        -0.7573
     23 O2         16.1697   14.9195   25.4912 O.co2   1  lig        -0.7573
     24 O3         11.7890    9.2787   20.4927 O.3     1  lig        -0.4913
@<TRIPOS>BOND
     1     1    12    1
     2     2    13    1
     3     3    14    1
     4     4    15    1
     5     5    19    1
     6     6    19    1
     7     7    20    1
     8     8    21    1
     9     9    21    1
    10    10    21    1
    11    11    24    1
    12    12    14   ar
    13    12    16   ar
    14    13    15   ar
    15    13    16   ar
    16    14    17   ar
    17    15    17   ar
    18    16    19    1
    19    17    24    1
    20    18    20    1
    21    18    22    1
    22    18    23    1
    23    19    20    1
    24    20    21    1
@<TRIPOS>SUBSTRUCTURE
     1 lig         1 TEMP              0 ****  ****    0 ROOT


########## Name:		ligand
########## HA_RMSDs:		13.0890
########## HA_RMSDh:		13.0609
########## HA_RMSDm:		10.8894
########## Cluster Size:	6
##########    Grid Score:          -21.759853
##########      Grid_vdw:          -21.018881
##########       Grid_es:           -0.740972
##########    Int_energy:            1.378530

@<TRIPOS>MOLECULE
ligand
 24 24 1 0 0
SMALL
No Charge or Current Charge


@<TRIPOS>ATOM
      1 H1          8.5348    9.9848   23.1238 H       1  lig         0.1340
      2 H2          9.6213    7.6935   19.6908 H       1  lig         0.1340
      3 H3          6.4902    8.6681   23.3107 H       1  lig         0.1475
      4 H4          7.5345    6.3931   19.8440 H       1  lig         0.1475
      5 H5         10.7554    9.7768   20.2125 H       1  lig         0.0877
      6 H6         10.3045   10.7877   21.5487 H       1  lig         0.0877
      7 H7         11.7209    8.1230   22.0057 H       1  lig         0.0966
      8 H8         10.6127    9.2200   23.8912 H       1  lig         0.4431
      9 H9         12.2550    9.3349   24.0976 H       1  lig         0.4431
     10 H10        11.3972   10.6527   23.5478 H       1  lig         0.4431
     11 H11         5.2914    7.2374   22.5303 H       1  lig         0.4214
     12 C1          8.3249    9.2056   22.3955 C.ar    1  lig        -0.0999
     13 C2          8.9142    7.9107   20.4879 C.ar    1  lig        -0.0999
     14 C3          7.1817    8.4621   22.5011 C.ar    1  lig        -0.1787
     15 C4          7.7435    7.1803   20.5615 C.ar    1  lig        -0.1787
     16 C5          9.1941    8.9368   21.3830 C.ar    1  lig        -0.1394
     17 C6          6.8637    7.4874   21.5927 C.ar    1  lig         0.1292
     18 C7         12.9551    9.7595   21.5101 C.2     1  lig         0.9321
     19 C8         10.4758    9.7404   21.2719 C.3     1  lig        -0.0452
     20 C9         11.6647    9.2104   22.0741 C.3     1  lig        -0.0740
     21 N1         11.4728    9.6077   23.4683 N.4     1  lig        -0.8252
     22 O1         13.4924    9.0426   20.6687 O.co2   1  lig        -0.7573
     23 O2         13.4711   10.8509   21.8861 O.co2   1  lig        -0.7573
     24 O3          5.7896    6.8259   21.7660 O.3     1  lig        -0.4913
@<TRIPOS>BOND
     1     1    12    1
     2     2    13    1
     3     3    14    1
     4     4    15    1
     5     5    19    1
     6     6    19    1
     7     7    20    1
     8     8    21    1
     9     9    21    1
    10    10    21    1
    11    11    24    1
    12    12    14   ar
    13    12    16   ar
    14    13    15   ar
    15    13    16   ar
    16    14    17   ar
    17    15    17   ar
    18    16    19    1
    19    17    24    1
    20    18    20    1
    21    18    22    1
    22    18    23    1
    23    19    20    1
    24    20    21    1
@<TRIPOS>SUBSTRUCTURE
     1 lig         1 TEMP              0 ****  ****    0 ROOT


########## Name:		ligand
########## HA_RMSDs:		10.5151
########## HA_RMSDh:		10.4973
########## HA_RMSDm:		8.2550
########## Cluster Size:	2
##########    Grid Score:          -21.743393
##########      Grid_vdw:          -15.420284
##########       Grid_es:           -6.323108
##########    Int_energy:            4.284820

@<TRIPOS>MOLECULE
ligand
 24 24 1 0 0
SMALL
No Charge or Current Charge


@<TRIPOS>ATOM
      1 H1         14.0564   14.6496   27.3174 H       1  lig         0.1340
      2 H2         17.1864   17.4455   26.5419 H       1  lig         0.1340
      3 H3         13.1996   16.1430   29.0450 H       1  lig         0.1475
      4 H4         16.3555   18.9353   28.3193 H       1  lig         0.1475
      5 H5         15.4328   14.2923   25.5255 H       1  lig         0.0877
      6 H6         16.3554   15.5768   24.8117 H       1  lig         0.0877
      7 H7         18.3084   14.9833   26.3154 H       1  lig         0.0966
      8 H8         18.0516   14.0644   24.0623 H       1  lig         0.4431
      9 H9         18.7241   12.9034   25.0383 H       1  lig         0.4431
     10 H10        17.1058   12.8222   24.6524 H       1  lig         0.4431
     11 H11        13.3198   17.9449   29.9667 H       1  lig         0.4214
     12 C1         14.5729   15.5819   27.5311 C.ar    1  lig        -0.0999
     13 C2         16.3050   17.1584   27.1105 C.ar    1  lig        -0.0999
     14 C3         14.0914   16.4238   28.4956 C.ar    1  lig        -0.1787
     15 C4         15.8507   17.9976   28.1099 C.ar    1  lig        -0.1787
     16 C5         15.6872   15.9434   26.8379 C.ar    1  lig        -0.1394
     17 C6         14.7227   17.5964   28.8160 C.ar    1  lig         0.1292
     18 C7         17.3066   13.4085   27.2969 C.2     1  lig         0.9321
     19 C8         16.2147   15.0271   25.7502 C.3     1  lig        -0.0452
     20 C9         17.5080   14.2806   26.0789 C.3     1  lig        -0.0740
     21 N1         17.8761   13.4908   24.9044 N.4     1  lig        -0.8252
     22 O1         16.1649   12.9741   27.4327 O.co2   1  lig        -0.7573
     23 O2         18.2198   13.1623   28.1361 O.co2   1  lig        -0.7573
     24 O3         14.2058   18.3361   29.7143 O.3     1  lig        -0.4913
@<TRIPOS>BOND
     1     1    12    1
     2     2    13    1
     3     3    14    1
     4     4    15    1
     5     5    19    1
     6     6    19    1
     7     7    20    1
     8     8    21    1
     9     9    21    1
    10    10    21    1
    11    11    24    1
    12    12    14   ar
    13    12    16   ar
    14    13    15   ar
    15    13    16   ar
    16    14    17   ar
    17    15    17   ar
    18    16    19    1
    19    17    24    1
    20    18    20    1
    21    18    22    1
    22    18    23    1
    23    19    20    1
    24    20    21    1
@<TRIPOS>SUBSTRUCTURE
     1 lig         1 TEMP              0 ****  ****    0 ROOT


########## Name:		ligand
########## HA_RMSDs:		13.2367
########## HA_RMSDh:		13.2105
########## HA_RMSDm:		11.3533
########## Cluster Size:	1
##########    Grid Score:          -21.741432
##########      Grid_vdw:          -16.098225
##########       Grid_es:           -5.643207
##########    Int_energy:            4.127057

@<TRIPOS>MOLECULE
ligand
 24 24 1 0 0
SMALL
No Charge or Current Charge


@<TRIPOS>ATOM
      1 H1          9.9165    7.1664   24.2580 H       1  lig         0.1340
      2 H2         10.0006   10.9246   22.2370 H       1  lig         0.1340
      3 H3          8.5358    8.1738   25.9979 H       1  lig         0.1475
      4 H4          8.6480   11.9611   24.0161 H       1  lig         0.1475
      5 H5         11.8252    8.9552   21.9645 H       1  lig         0.0877
      6 H6         11.2522    7.3641   22.3529 H       1  lig         0.0877
      7 H7         10.8070    7.5889   20.0332 H       1  lig         0.0966
      8 H8         11.1746   10.0070   19.9657 H       1  lig         0.4431
      9 H9          9.7575    9.6607   19.1751 H       1  lig         0.4431
     10 H10         9.7114   10.2733   20.7234 H       1  lig         0.4431
     11 H11         6.9739    9.9902   26.1265 H       1  lig         0.4214
     12 C1          9.6512    8.2188   24.1962 C.ar    1  lig        -0.0999
     13 C2          9.6785   10.3216   23.0827 C.ar    1  lig        -0.0999
     14 C3          8.8725    8.7849   25.1676 C.ar    1  lig        -0.1787
     15 C4          8.9258   10.9138   24.0788 C.ar    1  lig        -0.1787
     16 C5         10.0634    8.9877   23.1513 C.ar    1  lig        -0.1394
     17 C6          8.5341   10.1120   25.1444 C.ar    1  lig         0.1292
     18 C7          8.8522    7.6983   20.8167 C.2     1  lig         0.9321
     19 C8         10.9076    8.3624   22.0571 C.3     1  lig        -0.0452
     20 C9         10.2472    8.2645   20.6815 C.3     1  lig        -0.0740
     21 N1         10.2310    9.6061   20.0997 N.4     1  lig        -0.8252
     22 O1          8.8098    6.5025   21.0977 O.co2   1  lig        -0.7573
     23 O2          7.8030    8.3781   20.6273 O.co2   1  lig        -0.7573
     24 O3          7.7925   10.5638   26.0756 O.3     1  lig        -0.4913
@<TRIPOS>BOND
     1     1    12    1
     2     2    13    1
     3     3    14    1
     4     4    15    1
     5     5    19    1
     6     6    19    1
     7     7    20    1
     8     8    21    1
     9     9    21    1
    10    10    21    1
    11    11    24    1
    12    12    14   ar
    13    12    16   ar
    14    13    15   ar
    15    13    16   ar
    16    14    17   ar
    17    15    17   ar
    18    16    19    1
    19    17    24    1
    20    18    20    1
    21    18    22    1
    22    18    23    1
    23    19    20    1
    24    20    21    1
@<TRIPOS>SUBSTRUCTURE
     1 lig         1 TEMP              0 ****  ****    0 ROOT


########## Name:		ligand
########## HA_RMSDs:		13.6608
########## HA_RMSDh:		13.6192
########## HA_RMSDm:		11.8909
########## Cluster Size:	1
##########    Grid Score:          -21.734182
##########      Grid_vdw:          -19.396076
##########       Grid_es:           -2.338106
##########    Int_energy:            1.585216

@<TRIPOS>MOLECULE
ligand
 24 24 1 0 0
SMALL
No Charge or Current Charge


@<TRIPOS>ATOM
      1 H1         10.2483    7.2195   21.8636 H       1  lig         0.1340
      2 H2          7.7043   10.0908   23.7343 H       1  lig         0.1340
      3 H3         11.9291    8.9605   21.5593 H       1  lig         0.1475
      4 H4          9.3772   11.8652   23.3853 H       1  lig         0.1475
      5 H5          8.3012    6.5025   22.8116 H       1  lig         0.0877
      6 H6          7.5145    7.4197   24.0568 H       1  lig         0.0877
      7 H7          6.1651    8.5892   22.1636 H       1  lig         0.0966
      8 H8          5.3007    6.8372   23.6368 H       1  lig         0.4431
      9 H9          4.6986    6.5951   22.1098 H       1  lig         0.4431
     10 H10         5.9612    5.6573   22.6583 H       1  lig         0.4431
     11 H11        11.2714   12.2403   22.0238 H       1  lig         0.4214
     12 C1         10.0424    8.2339   22.1956 C.ar    1  lig        -0.0999
     13 C2          8.6435    9.8497   23.2421 C.ar    1  lig        -0.0999
     14 C3         10.9853    9.2110   22.0312 C.ar    1  lig        -0.1787
     15 C4          9.5727   10.8533   23.0450 C.ar    1  lig        -0.1787
     16 C5          8.8632    8.5513   22.7969 C.ar    1  lig        -0.1394
     17 C6         10.7604   10.5076   22.4112 C.ar    1  lig         0.1292
     18 C7          6.9121    7.2742   20.6940 C.2     1  lig         0.9321
     19 C8          7.8210    7.4689   23.0049 C.3     1  lig        -0.0452
     20 C9          6.5683    7.5758   22.1346 C.3     1  lig        -0.0740
     21 N1          5.5794    6.6361   22.6616 N.4     1  lig        -0.8252
     22 O1          7.0491    6.0796   20.4394 O.co2   1  lig        -0.7573
     23 O2          7.0810    8.1684   19.8161 O.co2   1  lig        -0.7573
     24 O3         11.6921   11.3585   22.2406 O.3     1  lig        -0.4913
@<TRIPOS>BOND
     1     1    12    1
     2     2    13    1
     3     3    14    1
     4     4    15    1
     5     5    19    1
     6     6    19    1
     7     7    20    1
     8     8    21    1
     9     9    21    1
    10    10    21    1
    11    11    24    1
    12    12    14   ar
    13    12    16   ar
    14    13    15   ar
    15    13    16   ar
    16    14    17   ar
    17    15    17   ar
    18    16    19    1
    19    17    24    1
    20    18    20    1
    21    18    22    1
    22    18    23    1
    23    19    20    1
    24    20    21    1
@<TRIPOS>SUBSTRUCTURE
     1 lig         1 TEMP              0 ****  ****    0 ROOT


########## Name:		ligand
########## HA_RMSDs:		13.9432
########## HA_RMSDh:		13.9008
########## HA_RMSDm:		12.1365
########## Cluster Size:	2
##########    Grid Score:          -21.676682
##########      Grid_vdw:          -15.547249
##########       Grid_es:           -6.129433
##########    Int_energy:            3.276268

@<TRIPOS>MOLECULE
ligand
 24 24 1 0 0
SMALL
No Charge or Current Charge


@<TRIPOS>ATOM
      1 H1         22.1522    4.6239   12.9972 H       1  lig         0.1340
      2 H2         25.6611    6.7145   14.2351 H       1  lig         0.1340
      3 H3         21.5157    6.5596   11.6567 H       1  lig         0.1475
      4 H4         24.9991    8.6917   12.9230 H       1  lig         0.1475
      5 H5         23.7743    3.4878   14.1722 H       1  lig         0.0877
      6 H6         25.3924    4.0880   14.3511 H       1  lig         0.0877
      7 H7         24.1847    3.4888   16.5235 H       1  lig         0.0966
      8 H8         22.0390    4.4780   15.8881 H       1  lig         0.4431
      9 H9         22.5818    5.2228   17.2678 H       1  lig         0.4431
     10 H10        22.7376    5.9912   15.7981 H       1  lig         0.4431
     11 H11        21.8713    8.9664   11.7680 H       1  lig         0.4214
     12 C1         22.7812    5.5105   12.9947 C.ar    1  lig        -0.0999
     13 C2         24.7347    6.6919   13.6660 C.ar    1  lig        -0.0999
     14 C3         22.4295    6.5953   12.2396 C.ar    1  lig        -0.1787
     15 C4         24.3688    7.8082   12.9385 C.ar    1  lig        -0.1787
     16 C5         23.9338    5.5568   13.7172 C.ar    1  lig        -0.1394
     17 C6         23.1777    7.7425   12.2252 C.ar    1  lig         0.1292
     18 C7         25.2246    5.3184   16.6579 C.2     1  lig         0.9321
     19 C8         24.3440    4.3496   14.5390 C.3     1  lig        -0.0452
     20 C9         24.1325    4.4696   16.0486 C.3     1  lig        -0.0740
     21 N1         22.8097    5.0536   16.2670 N.4     1  lig        -0.8252
     22 O1         24.9073    6.4867   16.8698 O.co2   1  lig        -0.7573
     23 O2         26.3867    4.8858   16.9058 O.co2   1  lig        -0.7573
     24 O3         22.7950    8.7053   11.4849 O.3     1  lig        -0.4913
@<TRIPOS>BOND
     1     1    12    1
     2     2    13    1
     3     3    14    1
     4     4    15    1
     5     5    19    1
     6     6    19    1
     7     7    20    1
     8     8    21    1
     9     9    21    1
    10    10    21    1
    11    11    24    1
    12    12    14   ar
    13    12    16   ar
    14    13    15   ar
    15    13    16   ar
    16    14    17   ar
    17    15    17   ar
    18    16    19    1
    19    17    24    1
    20    18    20    1
    21    18    22    1
    22    18    23    1
    23    19    20    1
    24    20    21    1
@<TRIPOS>SUBSTRUCTURE
     1 lig         1 TEMP              0 ****  ****    0 ROOT


########## Name:		ligand
########## HA_RMSDs:		11.3701
########## HA_RMSDh:		11.3241
########## HA_RMSDm:		9.9605
########## Cluster Size:	1
##########    Grid Score:          -21.655033
##########      Grid_vdw:          -21.091368
##########       Grid_es:           -0.563666
##########    Int_energy:            1.281096

@<TRIPOS>MOLECULE
ligand
 24 24 1 0 0
SMALL
No Charge or Current Charge


@<TRIPOS>ATOM
      1 H1         10.0152   11.3226   22.6248 H       1  lig         0.1340
      2 H2         13.2648    9.1435   20.9197 H       1  lig         0.1340
      3 H3         11.5942   12.4507   24.1023 H       1  lig         0.1475
      4 H4         14.8585   10.2426   22.4433 H       1  lig         0.1475
      5 H5         10.1137   10.2222   20.1219 H       1  lig         0.0877
      6 H6         11.0927    8.7907   20.0688 H       1  lig         0.0877
      7 H7          8.8375    9.3159   22.0694 H       1  lig         0.0966
      8 H8         10.6760    7.9981   23.0023 H       1  lig         0.4431
      9 H9          9.3846    6.9929   22.7286 H       1  lig         0.4431
     10 H10        10.6672    6.9982   21.6659 H       1  lig         0.4431
     11 H11        15.0062   11.7638   24.0010 H       1  lig         0.4214
     12 C1         11.0720   11.0723   22.5791 C.ar    1  lig        -0.0999
     13 C2         12.8998    9.8739   21.6380 C.ar    1  lig        -0.0999
     14 C3         11.9604   11.7073   23.4027 C.ar    1  lig        -0.1787
     15 C4         13.8006   10.4800   22.4927 C.ar    1  lig        -0.1787
     16 C5         11.5380   10.1468   21.6964 C.ar    1  lig        -0.1394
     17 C6         13.2967   11.4067   23.3978 C.ar    1  lig         0.1292
     18 C7          8.5226    8.0749   20.3937 C.2     1  lig         0.9321
     19 C8         10.5633    9.4547   20.7627 C.3     1  lig        -0.0452
     20 C9          9.4429    8.6634   21.4384 C.3     1  lig        -0.0740
     21 N1         10.0646    7.6235   22.2574 N.4     1  lig        -0.8252
     22 O1          7.5931    8.8063   20.0595 O.co2   1  lig        -0.7573
     23 O2          8.6641    6.9130   19.9156 O.co2   1  lig        -0.7573
     24 O3         14.0649   12.0516   24.1823 O.3     1  lig        -0.4913
@<TRIPOS>BOND
     1     1    12    1
     2     2    13    1
     3     3    14    1
     4     4    15    1
     5     5    19    1
     6     6    19    1
     7     7    20    1
     8     8    21    1
     9     9    21    1
    10    10    21    1
    11    11    24    1
    12    12    14   ar
    13    12    16   ar
    14    13    15   ar
    15    13    16   ar
    16    14    17   ar
    17    15    17   ar
    18    16    19    1
    19    17    24    1
    20    18    20    1
    21    18    22    1
    22    18    23    1
    23    19    20    1
    24    20    21    1
@<TRIPOS>SUBSTRUCTURE
     1 lig         1 TEMP              0 ****  ****    0 ROOT


########## Name:		ligand
########## HA_RMSDs:		14.0107
########## HA_RMSDh:		13.9503
########## HA_RMSDm:		12.5749
########## Cluster Size:	1
##########    Grid Score:          -21.610357
##########      Grid_vdw:          -15.186784
##########       Grid_es:           -6.423573
##########    Int_energy:            6.192614

@<TRIPOS>MOLECULE
ligand
 24 24 1 0 0
SMALL
No Charge or Current Charge


@<TRIPOS>ATOM
      1 H1         24.0919    7.0895   13.1595 H       1  lig         0.1340
      2 H2         25.5436    5.3967   16.7985 H       1  lig         0.1340
      3 H3         25.1633    9.1981   13.7552 H       1  lig         0.1475
      4 H4         26.5859    7.5377   17.4299 H       1  lig         0.1475
      5 H5         24.8831    4.0702   14.4105 H       1  lig         0.0877
      6 H6         23.5112    4.3939   15.4223 H       1  lig         0.0877
      7 H7         22.8293    5.8428   13.1478 H       1  lig         0.0966
      8 H8         21.4690    4.2561   14.4201 H       1  lig         0.4431
      9 H9         21.3778    3.8656   12.8101 H       1  lig         0.4431
     10 H10        22.3596    2.9778   13.8212 H       1  lig         0.4431
     11 H11        26.6142    9.7098   16.8397 H       1  lig         0.4214
     12 C1         24.6295    7.1761   14.1003 C.ar    1  lig        -0.0999
     13 C2         25.4554    6.2508   16.1312 C.ar    1  lig        -0.0999
     14 C3         25.2359    8.3557   14.4344 C.ar    1  lig        -0.1787
     15 C4         26.0378    7.4492   16.4973 C.ar    1  lig        -0.1787
     16 C5         24.7315    6.1190   14.9517 C.ar    1  lig        -0.1394
     17 C6         25.9025    8.5185   15.6198 C.ar    1  lig         0.1292
     18 C7         23.9536    4.3798   12.1268 C.2     1  lig         0.9321
     19 C8         24.0823    4.7998   14.5786 C.3     1  lig        -0.0452
     20 C9         23.1793    4.8285   13.3450 C.3     1  lig        -0.0740
     21 N1         22.0367    3.9551   13.6101 N.4     1  lig        -0.8252
     22 O1         25.0930    4.8338   12.0482 O.co2   1  lig        -0.7573
     23 O2         23.4718    3.6248   11.2342 O.co2   1  lig        -0.7573
     24 O3         26.4555    9.6413   15.8538 O.3     1  lig        -0.4913
@<TRIPOS>BOND
     1     1    12    1
     2     2    13    1
     3     3    14    1
     4     4    15    1
     5     5    19    1
     6     6    19    1
     7     7    20    1
     8     8    21    1
     9     9    21    1
    10    10    21    1
    11    11    24    1
    12    12    14   ar
    13    12    16   ar
    14    13    15   ar
    15    13    16   ar
    16    14    17   ar
    17    15    17   ar
    18    16    19    1
    19    17    24    1
    20    18    20    1
    21    18    22    1
    22    18    23    1
    23    19    20    1
    24    20    21    1
@<TRIPOS>SUBSTRUCTURE
     1 lig         1 TEMP              0 ****  ****    0 ROOT


########## Name:		ligand
########## HA_RMSDs:		13.0513
########## HA_RMSDh:		12.9789
########## HA_RMSDm:		11.5175
########## Cluster Size:	1
##########    Grid Score:          -21.593729
##########      Grid_vdw:          -17.495781
##########       Grid_es:           -4.097948
##########    Int_energy:            4.037707

@<TRIPOS>MOLECULE
ligand
 24 24 1 0 0
SMALL
No Charge or Current Charge


@<TRIPOS>ATOM
      1 H1          7.9748    8.4463   23.9284 H       1  lig         0.1340
      2 H2         11.4449   10.0457   22.0268 H       1  lig         0.1340
      3 H3          7.0347    7.9676   21.7293 H       1  lig         0.1475
      4 H4         10.4800    9.6107   19.8022 H       1  lig         0.1475
      5 H5          9.5465    9.5180   25.2169 H       1  lig         0.0877
      6 H6         11.0563    8.7887   24.7707 H       1  lig         0.0877
      7 H7         11.8237   11.0555   23.8692 H       1  lig         0.0966
      8 H8         12.3737   10.2337   26.1073 H       1  lig         0.4431
      9 H9         12.1290   11.8729   26.1862 H       1  lig         0.4431
     10 H10        10.9354   10.8334   26.7054 H       1  lig         0.4431
     11 H11         8.7144    8.8084   18.7968 H       1  lig         0.4214
     12 C1          8.5310    8.7120   23.0330 C.ar    1  lig        -0.0999
     13 C2         10.4593    9.5923   21.9517 C.ar    1  lig        -0.0999
     14 C3          8.0085    8.4398   21.7986 C.ar    1  lig        -0.1787
     15 C4          9.9239    9.3584   20.6995 C.ar    1  lig        -0.1787
     16 C5          9.7577    9.2962   23.1147 C.ar    1  lig        -0.1394
     17 C6          8.6617    8.7790   20.6435 C.ar    1  lig         0.1292
     18 C7         10.0566   12.0529   24.4431 C.2     1  lig         0.9321
     19 C8         10.3553    9.5803   24.4796 C.3     1  lig        -0.0452
     20 C9         11.0532   10.9323   24.6317 C.3     1  lig        -0.0740
     21 N1         11.6634   10.9705   25.9602 N.4     1  lig        -0.8252
     22 O1          8.8966   11.7594   24.7240 O.co2   1  lig        -0.7573
     23 O2         10.3688   13.1960   24.0019 O.co2   1  lig        -0.7573
     24 O3          8.1196    8.4787   19.5311 O.3     1  lig        -0.4913
@<TRIPOS>BOND
     1     1    12    1
     2     2    13    1
     3     3    14    1
     4     4    15    1
     5     5    19    1
     6     6    19    1
     7     7    20    1
     8     8    21    1
     9     9    21    1
    10    10    21    1
    11    11    24    1
    12    12    14   ar
    13    12    16   ar
    14    13    15   ar
    15    13    16   ar
    16    14    17   ar
    17    15    17   ar
    18    16    19    1
    19    17    24    1
    20    18    20    1
    21    18    22    1
    22    18    23    1
    23    19    20    1
    24    20    21    1
@<TRIPOS>SUBSTRUCTURE
     1 lig         1 TEMP              0 ****  ****    0 ROOT


########## Name:		ligand
########## HA_RMSDs:		13.1097
########## HA_RMSDh:		13.0890
########## HA_RMSDm:		11.3590
########## Cluster Size:	2
##########    Grid Score:          -21.584362
##########      Grid_vdw:          -18.432781
##########       Grid_es:           -3.151582
##########    Int_energy:            3.534233

@<TRIPOS>MOLECULE
ligand
 24 24 1 0 0
SMALL
No Charge or Current Charge


@<TRIPOS>ATOM
      1 H1          7.8014    9.9902   24.7379 H       1  lig         0.1340
      2 H2         11.0093    9.4784   21.9697 H       1  lig         0.1340
      3 H3          8.7042   12.1789   25.3239 H       1  lig         0.1475
      4 H4         11.9543   11.6664   22.5930 H       1  lig         0.1475
      5 H5          9.5439    7.7206   22.3391 H       1  lig         0.0877
      6 H6          8.6786    7.5966   23.8379 H       1  lig         0.0877
      7 H7          7.3459    9.2059   21.6641 H       1  lig         0.0966
      8 H8          6.3589    8.8422   23.8733 H       1  lig         0.4431
      9 H9          5.4429    8.0455   22.7422 H       1  lig         0.4431
     10 H10         6.5095    7.1897   23.6933 H       1  lig         0.4431
     11 H11        10.2071   13.5255   25.1308 H       1  lig         0.4214
     12 C1          8.7148   10.3426   24.2654 C.ar    1  lig        -0.0999
     13 C2         10.5077   10.0817   22.7227 C.ar    1  lig        -0.0999
     14 C3          9.2202   11.5718   24.5882 C.ar    1  lig        -0.1787
     15 C4         11.0492   11.3045   23.0703 C.ar    1  lig        -0.1787
     16 C5          9.3610    9.5885   23.3346 C.ar    1  lig        -0.1394
     17 C6         10.3811   12.0463   24.0373 C.ar    1  lig         0.1292
     18 C7          7.4539    7.1645   21.1468 C.2     1  lig         0.9321
     19 C8          8.7947    8.2340   22.9530 C.3     1  lig        -0.0452
     20 C9          7.4698    8.2581   22.1900 C.3     1  lig        -0.0740
     21 N1          6.3925    8.0901   23.1646 N.4     1  lig        -0.8252
     22 O1          8.0653    6.1462   21.4628 O.co2   1  lig        -0.7573
     23 O2          6.8896    7.2833   20.0215 O.co2   1  lig        -0.7573
     24 O3         10.7809   13.2071   24.3751 O.3     1  lig        -0.4913
@<TRIPOS>BOND
     1     1    12    1
     2     2    13    1
     3     3    14    1
     4     4    15    1
     5     5    19    1
     6     6    19    1
     7     7    20    1
     8     8    21    1
     9     9    21    1
    10    10    21    1
    11    11    24    1
    12    12    14   ar
    13    12    16   ar
    14    13    15   ar
    15    13    16   ar
    16    14    17   ar
    17    15    17   ar
    18    16    19    1
    19    17    24    1
    20    18    20    1
    21    18    22    1
    22    18    23    1
    23    19    20    1
    24    20    21    1
@<TRIPOS>SUBSTRUCTURE
     1 lig         1 TEMP              0 ****  ****    0 ROOT


########## Name:		ligand
########## HA_RMSDs:		12.7635
########## HA_RMSDh:		12.7357
########## HA_RMSDm:		10.6591
########## Cluster Size:	4
##########    Grid Score:          -21.567574
##########      Grid_vdw:          -19.883791
##########       Grid_es:           -1.683783
##########    Int_energy:            1.215402

@<TRIPOS>MOLECULE
ligand
 24 24 1 0 0
SMALL
No Charge or Current Charge


@<TRIPOS>ATOM
      1 H1          8.9734   10.0927   23.2706 H       1  lig         0.1340
      2 H2         10.0795    7.9797   19.7312 H       1  lig         0.1340
      3 H3          6.8058    8.9758   23.2165 H       1  lig         0.1475
      4 H4          7.8739    6.8858   19.6423 H       1  lig         0.1475
      5 H5         11.3495    9.9236   20.4955 H       1  lig         0.0877
      6 H6         10.9226   10.8247   21.9155 H       1  lig         0.0877
      7 H7         11.9870    7.9908   22.2158 H       1  lig         0.0966
      8 H8         11.0387    9.1817   24.1314 H       1  lig         0.4431
      9 H9         12.6773    9.0391   24.3500 H       1  lig         0.4431
     10 H10        12.0348   10.4890   23.8404 H       1  lig         0.4431
     11 H11         5.3526    8.0521   21.5912 H       1  lig         0.4214
     12 C1          8.7431    9.3975   22.4672 C.ar    1  lig        -0.0999
     13 C2          9.3413    8.2033   20.4978 C.ar    1  lig        -0.0999
     14 C3          7.5304    8.7657   22.4375 C.ar    1  lig        -0.1787
     15 C4          8.1048    7.5897   20.4355 C.ar    1  lig        -0.1787
     16 C5          9.6526    9.1234   21.4923 C.ar    1  lig        -0.1394
     17 C6          7.1871    7.9015   21.4317 C.ar    1  lig         0.1292
     18 C7         13.4600    9.4361   21.7818 C.2     1  lig         0.9321
     19 C8         11.0090    9.8015   21.5304 C.3     1  lig        -0.0452
     20 C9         12.0956    9.0713   22.3204 C.3     1  lig        -0.0740
     21 N1         11.9520    9.4478   23.7262 N.4     1  lig        -0.8252
     22 O1         13.8642   10.5463   22.1202 O.co2   1  lig        -0.7573
     23 O2         14.1307    8.6850   21.0171 O.co2   1  lig        -0.7573
     24 O3          6.0459    7.3389   21.4806 O.3     1  lig        -0.4913
@<TRIPOS>BOND
     1     1    12    1
     2     2    13    1
     3     3    14    1
     4     4    15    1
     5     5    19    1
     6     6    19    1
     7     7    20    1
     8     8    21    1
     9     9    21    1
    10    10    21    1
    11    11    24    1
    12    12    14   ar
    13    12    16   ar
    14    13    15   ar
    15    13    16   ar
    16    14    17   ar
    17    15    17   ar
    18    16    19    1
    19    17    24    1
    20    18    20    1
    21    18    22    1
    22    18    23    1
    23    19    20    1
    24    20    21    1
@<TRIPOS>SUBSTRUCTURE
     1 lig         1 TEMP              0 ****  ****    0 ROOT


########## Name:		ligand
########## HA_RMSDs:		12.7378
########## HA_RMSDh:		12.6850
########## HA_RMSDm:		10.8372
########## Cluster Size:	4
##########    Grid Score:          -21.558235
##########      Grid_vdw:          -17.787733
##########       Grid_es:           -3.770503
##########    Int_energy:            4.128049

@<TRIPOS>MOLECULE
ligand
 24 24 1 0 0
SMALL
No Charge or Current Charge


@<TRIPOS>ATOM
      1 H1         11.7912    9.9854   21.9381 H       1  lig         0.1340
      2 H2          8.3701    8.8843   24.2401 H       1  lig         0.1340
      3 H3         10.4961    9.6177   19.9043 H       1  lig         0.1475
      4 H4          7.0714    8.4630   22.1895 H       1  lig         0.1475
      5 H5         10.7186    8.8781   25.1896 H       1  lig         0.0877
      6 H6         12.0388    9.5659   24.2981 H       1  lig         0.0877
      7 H7         11.3874   11.1422   26.0286 H       1  lig         0.0966
      8 H8          9.0994   10.3159   26.2915 H       1  lig         0.4431
      9 H9          9.0496   11.9572   26.0533 H       1  lig         0.4431
     10 H10         8.6824   10.9283   24.7959 H       1  lig         0.4431
     11 H11         8.7030    9.1856   19.0686 H       1  lig         0.4214
     12 C1         10.7608    9.6461   22.0070 C.ar    1  lig        -0.0999
     13 C2          8.8389    9.0358   23.2706 C.ar    1  lig        -0.0999
     14 C3         10.0306    9.4443   20.8683 C.ar    1  lig        -0.1787
     15 C4          8.1043    8.7904   22.1263 C.ar    1  lig        -0.1787
     16 C5         10.1690    9.4361   23.2147 C.ar    1  lig        -0.1394
     17 C6          8.7377    8.9935   20.9059 C.ar    1  lig         0.1292
     18 C7         11.0345   12.1551   24.2130 C.2     1  lig         0.9321
     19 C8         10.9639    9.6800   24.4834 C.3     1  lig        -0.0452
     20 C9         10.7257   11.0258   25.1690 C.3     1  lig        -0.0740
     21 N1          9.3321   11.0589   25.6112 N.4     1  lig        -0.8252
     22 O1         12.1354   12.0812   23.6715 O.co2   1  lig        -0.7573
     23 O2         10.2487   13.1227   24.0007 O.co2   1  lig        -0.7573
     24 O3          8.1164    8.8448   19.8044 O.3     1  lig        -0.4913
@<TRIPOS>BOND
     1     1    12    1
     2     2    13    1
     3     3    14    1
     4     4    15    1
     5     5    19    1
     6     6    19    1
     7     7    20    1
     8     8    21    1
     9     9    21    1
    10    10    21    1
    11    11    24    1
    12    12    14   ar
    13    12    16   ar
    14    13    15   ar
    15    13    16   ar
    16    14    17   ar
    17    15    17   ar
    18    16    19    1
    19    17    24    1
    20    18    20    1
    21    18    22    1
    22    18    23    1
    23    19    20    1
    24    20    21    1
@<TRIPOS>SUBSTRUCTURE
     1 lig         1 TEMP              0 ****  ****    0 ROOT


########## Name:		ligand
########## HA_RMSDs:		12.8140
########## HA_RMSDh:		12.7825
########## HA_RMSDm:		10.5996
########## Cluster Size:	1
##########    Grid Score:          -21.550583
##########      Grid_vdw:          -19.222454
##########       Grid_es:           -2.328128
##########    Int_energy:            2.393442

@<TRIPOS>MOLECULE
ligand
 24 24 1 0 0
SMALL
No Charge or Current Charge


@<TRIPOS>ATOM
      1 H1          9.4539    8.6787   23.7464 H       1  lig         0.1340
      2 H2         10.5993    8.5613   19.6367 H       1  lig         0.1340
      3 H3          7.2187    7.9411   23.1070 H       1  lig         0.1475
      4 H4          8.3298    7.8645   18.9787 H       1  lig         0.1475
      5 H5         11.7211    8.8250   23.1632 H       1  lig         0.0877
      6 H6         12.3137    8.5807   21.5509 H       1  lig         0.0877
      7 H7         11.1921   11.0806   21.2482 H       1  lig         0.0966
      8 H8         13.4602   10.3479   20.6953 H       1  lig         0.4431
      9 H9         13.5511   11.7737   21.5392 H       1  lig         0.4431
     10 H10        13.8741   10.3340   22.3122 H       1  lig         0.4431
     11 H11         5.8836    7.6078   21.5934 H       1  lig         0.4214
     12 C1          9.2191    8.5100   22.6985 C.ar    1  lig        -0.0999
     13 C2          9.8380    8.4304   20.4021 C.ar    1  lig        -0.0999
     14 C3          7.9681    8.0912   22.3377 C.ar    1  lig        -0.1787
     15 C4          8.5663    8.0458   20.0224 C.ar    1  lig        -0.1787
     16 C5         10.1589    8.6879   21.7300 C.ar    1  lig        -0.1394
     17 C6          7.6199    7.8902   21.0283 C.ar    1  lig         0.1292
     18 C7         11.5485   11.3175   23.3131 C.2     1  lig         0.9321
     19 C8         11.5559    9.1294   22.1231 C.3     1  lig        -0.0452
     20 C9         11.8392   10.6269   22.0004 C.3     1  lig        -0.0740
     21 N1         13.2388   10.7837   21.6064 N.4     1  lig        -0.8252
     22 O1         10.3802   11.2374   23.6864 O.co2   1  lig        -0.7573
     23 O2         12.4179   11.9582   23.9708 O.co2   1  lig        -0.7573
     24 O3          6.4407    7.4845   20.7711 O.3     1  lig        -0.4913
@<TRIPOS>BOND
     1     1    12    1
     2     2    13    1
     3     3    14    1
     4     4    15    1
     5     5    19    1
     6     6    19    1
     7     7    20    1
     8     8    21    1
     9     9    21    1
    10    10    21    1
    11    11    24    1
    12    12    14   ar
    13    12    16   ar
    14    13    15   ar
    15    13    16   ar
    16    14    17   ar
    17    15    17   ar
    18    16    19    1
    19    17    24    1
    20    18    20    1
    21    18    22    1
    22    18    23    1
    23    19    20    1
    24    20    21    1
@<TRIPOS>SUBSTRUCTURE
     1 lig         1 TEMP              0 ****  ****    0 ROOT


########## Name:		ligand
########## HA_RMSDs:		13.8209
########## HA_RMSDh:		13.7739
########## HA_RMSDm:		11.6804
########## Cluster Size:	3
##########    Grid Score:          -21.532879
##########      Grid_vdw:          -18.243902
##########       Grid_es:           -3.288977
##########    Int_energy:            1.173662

@<TRIPOS>MOLECULE
ligand
 24 24 1 0 0
SMALL
No Charge or Current Charge


@<TRIPOS>ATOM
      1 H1          8.0618    9.0768   23.8090 H       1  lig         0.1340
      2 H2          9.7139    6.9939   20.4701 H       1  lig         0.1340
      3 H3          5.9349    7.9504   23.4132 H       1  lig         0.1475
      4 H4          7.5548    5.8905   20.0343 H       1  lig         0.1475
      5 H5         10.4410    8.9586   23.4842 H       1  lig         0.0877
      6 H6         11.1780    8.1457   22.1402 H       1  lig         0.0877
      7 H7          9.5835   10.5857   21.4211 H       1  lig         0.0966
      8 H8         10.8915    9.2689   19.8267 H       1  lig         0.4431
      9 H9         11.5800   10.7719   19.9686 H       1  lig         0.4431
     10 H10        12.2657    9.4717   20.7521 H       1  lig         0.4431
     11 H11         4.9828    6.7579   20.8072 H       1  lig         0.4214
     12 C1          7.9624    8.3863   22.9753 C.ar    1  lig        -0.0999
     13 C2          8.8648    7.2087   21.1147 C.ar    1  lig        -0.0999
     14 C3          6.7725    7.7491   22.7543 C.ar    1  lig        -0.1787
     15 C4          7.6562    6.5899   20.8581 C.ar    1  lig        -0.1787
     16 C5          9.0133    8.1231   22.1511 C.ar    1  lig        -0.1394
     17 C6          6.5937    6.8905   21.7022 C.ar    1  lig         0.1292
     18 C7         11.2207   11.1269   22.6351 C.2     1  lig         0.9321
     19 C8         10.3436    8.8072   22.4028 C.3     1  lig        -0.0452
     20 C9         10.5442   10.1504   21.7004 C.3     1  lig        -0.0740
     21 N1         11.3443    9.9094   20.5003 N.4     1  lig        -0.8252
     22 O1         10.4716   11.6549   23.4541 O.co2   1  lig        -0.7573
     23 O2         12.4506   11.4135   22.5721 O.co2   1  lig        -0.7573
     24 O3          5.4619    6.3223   21.5704 O.3     1  lig        -0.4913
@<TRIPOS>BOND
     1     1    12    1
     2     2    13    1
     3     3    14    1
     4     4    15    1
     5     5    19    1
     6     6    19    1
     7     7    20    1
     8     8    21    1
     9     9    21    1
    10    10    21    1
    11    11    24    1
    12    12    14   ar
    13    12    16   ar
    14    13    15   ar
    15    13    16   ar
    16    14    17   ar
    17    15    17   ar
    18    16    19    1
    19    17    24    1
    20    18    20    1
    21    18    22    1
    22    18    23    1
    23    19    20    1
    24    20    21    1
@<TRIPOS>SUBSTRUCTURE
     1 lig         1 TEMP              0 ****  ****    0 ROOT


########## Name:		ligand
########## HA_RMSDs:		13.4312
########## HA_RMSDh:		13.3552
########## HA_RMSDm:		11.1678
########## Cluster Size:	2
##########    Grid Score:          -21.525999
##########      Grid_vdw:          -15.703520
##########       Grid_es:           -5.822479
##########    Int_energy:            4.225471

@<TRIPOS>MOLECULE
ligand
 24 24 1 0 0
SMALL
No Charge or Current Charge


@<TRIPOS>ATOM
      1 H1          8.7585    7.7501   23.9162 H       1  lig         0.1340
      2 H2          9.1734    9.9229   20.2662 H       1  lig         0.1340
      3 H3          7.6747    5.9492   22.6789 H       1  lig         0.1475
      4 H4          8.0348    8.1297   19.0183 H       1  lig         0.1475
      5 H5          9.2076   11.0147   22.6681 H       1  lig         0.0877
      6 H6          9.5384    9.9696   24.0131 H       1  lig         0.0877
      7 H7         11.6578   10.8739   23.4282 H       1  lig         0.0966
      8 H8         10.9466   11.7415   21.2537 H       1  lig         0.4431
      9 H9         12.3669   10.9068   21.0562 H       1  lig         0.4431
     10 H10        10.9243   10.1976   20.6198 H       1  lig         0.4431
     11 H11         6.6799    5.4297   20.9017 H       1  lig         0.4214
     12 C1          8.6005    7.8486   22.8452 C.ar    1  lig        -0.0999
     13 C2          8.8279    9.0391   20.7973 C.ar    1  lig        -0.0999
     14 C3          7.9980    6.8380   22.1480 C.ar    1  lig        -0.1787
     15 C4          8.1844    8.0418   20.0897 C.ar    1  lig        -0.1787
     16 C5          9.0128    8.9579   22.1727 C.ar    1  lig        -0.1394
     17 C6          7.7558    6.9285   20.8029 C.ar    1  lig         0.1292
     18 C7         11.8828    8.8764   22.7907 C.2     1  lig         0.9321
     19 C8          9.7033   10.0737   22.9338 C.3     1  lig        -0.0452
     20 C9         11.2038   10.2223   22.6801 C.3     1  lig        -0.0740
     21 N1         11.3741   10.8050   21.3497 N.4     1  lig        -0.8252
     22 O1         11.6657    8.2781   23.8421 O.co2   1  lig        -0.7573
     23 O2         12.6423    8.4037   21.8971 O.co2   1  lig        -0.7573
     24 O3          7.2049    5.9399   20.2193 O.3     1  lig        -0.4913
@<TRIPOS>BOND
     1     1    12    1
     2     2    13    1
     3     3    14    1
     4     4    15    1
     5     5    19    1
     6     6    19    1
     7     7    20    1
     8     8    21    1
     9     9    21    1
    10    10    21    1
    11    11    24    1
    12    12    14   ar
    13    12    16   ar
    14    13    15   ar
    15    13    16   ar
    16    14    17   ar
    17    15    17   ar
    18    16    19    1
    19    17    24    1
    20    18    20    1
    21    18    22    1
    22    18    23    1
    23    19    20    1
    24    20    21    1
@<TRIPOS>SUBSTRUCTURE
     1 lig         1 TEMP              0 ****  ****    0 ROOT


########## Name:		ligand
########## HA_RMSDs:		14.2050
########## HA_RMSDh:		14.1618
########## HA_RMSDm:		12.7076
########## Cluster Size:	2
##########    Grid Score:          -21.525562
##########      Grid_vdw:          -14.552814
##########       Grid_es:           -6.972747
##########    Int_energy:            2.695521

@<TRIPOS>MOLECULE
ligand
 24 24 1 0 0
SMALL
No Charge or Current Charge


@<TRIPOS>ATOM
      1 H1         21.8248    4.6779   12.8702 H       1  lig         0.1340
      2 H2         25.6540    6.2374   13.9291 H       1  lig         0.1340
      3 H3         21.2972    6.8024   11.7946 H       1  lig         0.1475
      4 H4         25.1087    8.4026   12.8882 H       1  lig         0.1475
      5 H5         23.4525    3.2424   13.7032 H       1  lig         0.0877
      6 H6         25.1195    3.6916   13.8760 H       1  lig         0.0877
      7 H7         23.7581    2.9432   15.9994 H       1  lig         0.0966
      8 H8         21.9386    4.5346   15.6200 H       1  lig         0.4431
      9 H9         22.6835    4.9084   17.0547 H       1  lig         0.4431
     10 H10        23.0103    5.8121   15.6942 H       1  lig         0.4431
     11 H11        21.8124    8.9350   11.8182 H       1  lig         0.4214
     12 C1         22.5503    5.4873   12.8868 C.ar    1  lig        -0.0999
     13 C2         24.6825    6.3748   13.4602 C.ar    1  lig        -0.0999
     14 C3         22.2591    6.6778   12.2797 C.ar    1  lig        -0.1787
     15 C4         24.3835    7.5950   12.8849 C.ar    1  lig        -0.1787
     16 C5         23.7626    5.3328   13.4861 C.ar    1  lig        -0.1394
     17 C6         23.1318    7.7335   12.2969 C.ar    1  lig         0.1292
     18 C7         25.2464    4.4025   16.3190 C.2     1  lig         0.9321
     19 C8         24.1034    4.0079   14.1414 C.3     1  lig        -0.0452
     20 C9         23.9581    3.9616   15.6628 C.3     1  lig        -0.0740
     21 N1         22.8407    4.8308   16.0293 N.4     1  lig        -0.8252
     22 O1         26.0892    3.5161   16.4401 O.co2   1  lig        -0.7573
     23 O2         25.4452    5.5765   16.7445 O.co2   1  lig        -0.7573
     24 O3         22.7972    8.8051   11.6960 O.3     1  lig        -0.4913
@<TRIPOS>BOND
     1     1    12    1
     2     2    13    1
     3     3    14    1
     4     4    15    1
     5     5    19    1
     6     6    19    1
     7     7    20    1
     8     8    21    1
     9     9    21    1
    10    10    21    1
    11    11    24    1
    12    12    14   ar
    13    12    16   ar
    14    13    15   ar
    15    13    16   ar
    16    14    17   ar
    17    15    17   ar
    18    16    19    1
    19    17    24    1
    20    18    20    1
    21    18    22    1
    22    18    23    1
    23    19    20    1
    24    20    21    1
@<TRIPOS>SUBSTRUCTURE
     1 lig         1 TEMP              0 ****  ****    0 ROOT


########## Name:		ligand
########## HA_RMSDs:		13.1982
########## HA_RMSDh:		13.1512
########## HA_RMSDm:		10.6180
########## Cluster Size:	1
##########    Grid Score:          -21.514399
##########      Grid_vdw:          -19.552383
##########       Grid_es:           -1.962016
##########    Int_energy:            1.641305

@<TRIPOS>MOLECULE
ligand
 24 24 1 0 0
SMALL
No Charge or Current Charge


@<TRIPOS>ATOM
      1 H1         11.3763   12.1867   23.5648 H       1  lig         0.1340
      2 H2          8.1122    9.5162   22.9090 H       1  lig         0.1340
      3 H3         12.5270   11.1907   21.6589 H       1  lig         0.1475
      4 H4          9.2902    8.4720   21.0140 H       1  lig         0.1475
      5 H5          9.3738   12.5270   24.6987 H       1  lig         0.0877
      6 H6          7.9005   11.7025   24.2985 H       1  lig         0.0877
      7 H7         10.0472   10.4114   26.0497 H       1  lig         0.0966
      8 H8          8.3919    8.9511   24.9942 H       1  lig         0.4431
      9 H9          8.0721    9.0318   26.6203 H       1  lig         0.4431
     10 H10         7.1506    9.9174   25.5521 H       1  lig         0.4431
     11 H11        12.1671   10.0697   19.8316 H       1  lig         0.4214
     12 C1         10.9111   11.3698   23.0188 C.ar    1  lig        -0.0999
     13 C2          9.0997    9.8765   22.6302 C.ar    1  lig        -0.0999
     14 C3         11.5518   10.8131   21.9463 C.ar    1  lig        -0.1787
     15 C4          9.7551    9.2799   21.5701 C.ar    1  lig        -0.1787
     16 C5          9.6833   10.8987   23.3697 C.ar    1  lig        -0.1394
     17 C6         11.0157    9.7662   21.2444 C.ar    1  lig         0.1292
     18 C7          8.6424   11.6562   27.0109 C.2     1  lig         0.9321
     19 C8          8.9549   11.5259   24.5432 C.3     1  lig        -0.0452
     20 C9          9.0288   10.7543   25.8612 C.3     1  lig        -0.0740
     21 N1          8.1329    9.6035   25.7534 N.4     1  lig        -0.8252
     22 O1          9.5833   12.0279   27.7090 O.co2   1  lig        -0.7573
     23 O2          7.4488   11.9852   27.2676 O.co2   1  lig        -0.7573
     24 O3         11.6640    9.3110   20.2474 O.3     1  lig        -0.4913
@<TRIPOS>BOND
     1     1    12    1
     2     2    13    1
     3     3    14    1
     4     4    15    1
     5     5    19    1
     6     6    19    1
     7     7    20    1
     8     8    21    1
     9     9    21    1
    10    10    21    1
    11    11    24    1
    12    12    14   ar
    13    12    16   ar
    14    13    15   ar
    15    13    16   ar
    16    14    17   ar
    17    15    17   ar
    18    16    19    1
    19    17    24    1
    20    18    20    1
    21    18    22    1
    22    18    23    1
    23    19    20    1
    24    20    21    1
@<TRIPOS>SUBSTRUCTURE
     1 lig         1 TEMP              0 ****  ****    0 ROOT


########## Name:		ligand
########## HA_RMSDs:		10.2615
########## HA_RMSDh:		10.1650
########## HA_RMSDm:		8.4343
########## Cluster Size:	1
##########    Grid Score:          -21.492012
##########      Grid_vdw:          -15.748501
##########       Grid_es:           -5.743510
##########    Int_energy:            2.987897

@<TRIPOS>MOLECULE
ligand
 24 24 1 0 0
SMALL
No Charge or Current Charge


@<TRIPOS>ATOM
      1 H1         12.1426   12.4780   25.2004 H       1  lig         0.1340
      2 H2         15.0158   10.7557   22.5558 H       1  lig         0.1340
      3 H3         10.3699   11.7416   23.6958 H       1  lig         0.1475
      4 H4         13.2337   10.0529   21.0068 H       1  lig         0.1475
      5 H5         14.3377   12.3524   25.8705 H       1  lig         0.0877
      6 H6         15.4832   11.2939   25.1102 H       1  lig         0.0877
      7 H7         14.9568   14.1303   24.0958 H       1  lig         0.0966
      8 H8         15.9709   12.5411   22.5361 H       1  lig         0.4431
      9 H9         17.1240   13.6384   23.0044 H       1  lig         0.4431
     10 H10        17.1118   12.1147   23.6773 H       1  lig         0.4431
     11 H11        11.0635   10.2125   20.6555 H       1  lig         0.4214
     12 C1         12.3955   11.9535   24.2824 C.ar    1  lig        -0.0999
     13 C2         13.9795   10.9799   22.7972 C.ar    1  lig        -0.0999
     14 C3         11.4031   11.5347   23.4396 C.ar    1  lig        -0.1787
     15 C4         12.9876   10.5874   21.9189 C.ar    1  lig        -0.1787
     16 C5         13.6903   11.6830   23.9610 C.ar    1  lig        -0.1394
     17 C6         11.6755   10.8928   22.2606 C.ar    1  lig         0.1292
     18 C7         16.4048   13.8879   25.6095 C.2     1  lig         0.9321
     19 C8         14.7962   12.1229   24.9015 C.3     1  lig        -0.0452
     20 C9         15.6131   13.3330   24.4475 C.3     1  lig        -0.0740
     21 N1         16.4865   12.8966   23.3587 N.4     1  lig        -0.8252
     22 O1         16.8528   13.0383   26.3763 O.co2   1  lig        -0.7573
     23 O2         16.5745   15.1248   25.8094 O.co2   1  lig        -0.7573
     24 O3         10.6980   10.5186   21.5355 O.3     1  lig        -0.4913
@<TRIPOS>BOND
     1     1    12    1
     2     2    13    1
     3     3    14    1
     4     4    15    1
     5     5    19    1
     6     6    19    1
     7     7    20    1
     8     8    21    1
     9     9    21    1
    10    10    21    1
    11    11    24    1
    12    12    14   ar
    13    12    16   ar
    14    13    15   ar
    15    13    16   ar
    16    14    17   ar
    17    15    17   ar
    18    16    19    1
    19    17    24    1
    20    18    20    1
    21    18    22    1
    22    18    23    1
    23    19    20    1
    24    20    21    1
@<TRIPOS>SUBSTRUCTURE
     1 lig         1 TEMP              0 ****  ****    0 ROOT


########## Name:		ligand
########## HA_RMSDs:		10.5338
########## HA_RMSDh:		10.5162
########## HA_RMSDm:		8.1284
########## Cluster Size:	3
##########    Grid Score:          -21.461462
##########      Grid_vdw:          -15.316056
##########       Grid_es:           -6.145406
##########    Int_energy:            2.116498

@<TRIPOS>MOLECULE
ligand
 24 24 1 0 0
SMALL
No Charge or Current Charge


@<TRIPOS>ATOM
      1 H1         17.0864   17.5055   26.5198 H       1  lig         0.1340
      2 H2         14.1549   14.5268   27.3855 H       1  lig         0.1340
      3 H3         16.1871   18.8660   28.3334 H       1  lig         0.1475
      4 H4         13.2099   15.9176   29.1860 H       1  lig         0.1475
      5 H5         15.4478   14.3780   25.4034 H       1  lig         0.0877
      6 H6         16.4233   15.6863   24.8141 H       1  lig         0.0877
      7 H7         18.3114   14.9720   26.3056 H       1  lig         0.0966
      8 H8         18.0600   14.0728   24.0439 H       1  lig         0.4431
      9 H9         18.6814   12.8865   25.0235 H       1  lig         0.4431
     10 H10        17.0674   12.8577   24.6131 H       1  lig         0.4431
     11 H11        13.3968   17.8729   30.1592 H       1  lig         0.4214
     12 C1         16.2334   17.1489   27.0916 C.ar    1  lig        -0.0999
     13 C2         14.5952   15.4985   27.5966 C.ar    1  lig        -0.0999
     14 C3         15.7306   17.9074   28.1127 C.ar    1  lig        -0.1787
     15 C4         14.0539   16.2740   28.6040 C.ar    1  lig        -0.1787
     16 C5         15.6628   15.9423   26.8248 C.ar    1  lig        -0.1394
     17 C6         14.6424   17.5102   28.8436 C.ar    1  lig         0.1292
     18 C7         17.2465   13.4243   27.2635 C.2     1  lig         0.9321
     19 C8         16.2288   15.0838   25.7096 C.3     1  lig        -0.0452
     20 C9         17.4932   14.2958   26.0534 C.3     1  lig        -0.0740
     21 N1         17.8542   13.5007   24.8802 N.4     1  lig        -0.8252
     22 O1         17.5695   13.9323   28.3350 O.co2   1  lig        -0.7573
     23 O2         16.7769   12.2523   27.1939 O.co2   1  lig        -0.7573
     24 O3         14.2413   18.2624   29.7894 O.3     1  lig        -0.4913
@<TRIPOS>BOND
     1     1    12    1
     2     2    13    1
     3     3    14    1
     4     4    15    1
     5     5    19    1
     6     6    19    1
     7     7    20    1
     8     8    21    1
     9     9    21    1
    10    10    21    1
    11    11    24    1
    12    12    14   ar
    13    12    16   ar
    14    13    15   ar
    15    13    16   ar
    16    14    17   ar
    17    15    17   ar
    18    16    19    1
    19    17    24    1
    20    18    20    1
    21    18    22    1
    22    18    23    1
    23    19    20    1
    24    20    21    1
@<TRIPOS>SUBSTRUCTURE
     1 lig         1 TEMP              0 ****  ****    0 ROOT


########## Name:		ligand
########## HA_RMSDs:		12.1497
########## HA_RMSDh:		12.0834
########## HA_RMSDm:		8.6986
########## Cluster Size:	1
##########    Grid Score:          -21.458565
##########      Grid_vdw:          -18.799442
##########       Grid_es:           -2.659123
##########    Int_energy:            6.134360

@<TRIPOS>MOLECULE
ligand
 24 24 1 0 0
SMALL
No Charge or Current Charge


@<TRIPOS>ATOM
      1 H1         16.7449   16.8729   28.2350 H       1  lig         0.1340
      2 H2         13.4209   14.1963   28.2775 H       1  lig         0.1340
      3 H3         17.4612   15.8924   26.1198 H       1  lig         0.1475
      4 H4         14.1662   13.1676   26.1667 H       1  lig         0.1475
      5 H5         13.4983   16.1235   29.7431 H       1  lig         0.0877
      6 H6         14.9382   15.6056   30.5611 H       1  lig         0.0877
      7 H7         16.0282   17.8219   29.6372 H       1  lig         0.0966
      8 H8         15.4201   17.3682   31.9633 H       1  lig         0.4431
      9 H9         15.0263   18.9399   31.6061 H       1  lig         0.4431
     10 H10        13.8326   17.7791   31.6521 H       1  lig         0.4431
     11 H11        17.1407   14.5316   24.6635 H       1  lig         0.4214
     12 C1         16.1748   16.0580   27.7962 C.ar    1  lig        -0.0999
     13 C2         14.3247   14.5614   27.7956 C.ar    1  lig        -0.0999
     14 C3         16.5711   15.5100   26.6074 C.ar    1  lig        -0.1787
     15 C4         14.7382   13.9735   26.6154 C.ar    1  lig        -0.1787
     16 C5         15.0518   15.5808   28.3994 C.ar    1  lig        -0.1394
     17 C6         15.8986   14.4658   26.0298 C.ar    1  lig         0.1292
     18 C7         14.1374   18.5634   29.0696 C.2     1  lig         0.9321
     19 C8         14.5914   16.1985   29.7061 C.3     1  lig        -0.0452
     20 C9         14.9898   17.6578   29.9287 C.3     1  lig        -0.0740
     21 N1         14.8246   17.9516   31.3518 N.4     1  lig        -0.8252
     22 O1         13.7292   18.0487   28.0308 O.co2   1  lig        -0.7573
     23 O2         13.8823   19.7662   29.3648 O.co2   1  lig        -0.7573
     24 O3         16.3184   14.0188   24.9139 O.3     1  lig        -0.4913
@<TRIPOS>BOND
     1     1    12    1
     2     2    13    1
     3     3    14    1
     4     4    15    1
     5     5    19    1
     6     6    19    1
     7     7    20    1
     8     8    21    1
     9     9    21    1
    10    10    21    1
    11    11    24    1
    12    12    14   ar
    13    12    16   ar
    14    13    15   ar
    15    13    16   ar
    16    14    17   ar
    17    15    17   ar
    18    16    19    1
    19    17    24    1
    20    18    20    1
    21    18    22    1
    22    18    23    1
    23    19    20    1
    24    20    21    1
@<TRIPOS>SUBSTRUCTURE
     1 lig         1 TEMP              0 ****  ****    0 ROOT


########## Name:		ligand
########## HA_RMSDs:		14.6834
########## HA_RMSDh:		14.6707
########## HA_RMSDm:		12.7950
########## Cluster Size:	1
##########    Grid Score:          -21.450603
##########      Grid_vdw:          -14.961731
##########       Grid_es:           -6.488872
##########    Int_energy:            3.863668

@<TRIPOS>MOLECULE
ligand
 24 24 1 0 0
SMALL
No Charge or Current Charge


@<TRIPOS>ATOM
      1 H1         25.7094    4.7260   12.6439 H       1  lig         0.1340
      2 H2         22.0478    6.8984   12.3453 H       1  lig         0.1340
      3 H3         26.7421    6.6794   13.6766 H       1  lig         0.1475
      4 H4         23.0982    8.8915   13.3421 H       1  lig         0.1475
      5 H5         22.2666    4.8183   11.2597 H       1  lig         0.0877
      6 H6         23.8043    4.0595   10.9945 H       1  lig         0.0877
      7 H7         22.0439    2.6983   12.2970 H       1  lig         0.0966
      8 H8         21.3692    4.5399   13.7599 H       1  lig         0.4431
      9 H9         21.9644    3.3059   14.6959 H       1  lig         0.4431
     10 H10        22.9136    4.6389   14.3851 H       1  lig         0.4431
     11 H11        26.5133    8.5513   14.4130 H       1  lig         0.4214
     12 C1         25.1282    5.6337   12.7853 C.ar    1  lig        -0.0999
     13 C2         23.0952    6.8613   12.6356 C.ar    1  lig        -0.0999
     14 C3         25.7033    6.7288   13.3691 C.ar    1  lig        -0.1787
     15 C4         23.6770    7.9865   13.1877 C.ar    1  lig        -0.1787
     16 C5         23.8215    5.6977   12.4096 C.ar    1  lig        -0.1394
     17 C6         25.0176    7.9015   13.5446 C.ar    1  lig         0.1292
     18 C7         23.9950    2.5187   13.0765 C.2     1  lig         0.9321
     19 C8         23.1687    4.4803   11.7830 C.3     1  lig        -0.0452
     20 C9         22.7829    3.3607   12.7502 C.3     1  lig        -0.0740
     21 N1         22.2194    3.9824   13.9479 N.4     1  lig        -0.8252
     22 O1         24.1260    1.5166   12.3769 O.co2   1  lig        -0.7573
     23 O2         24.8013    2.7911   14.0117 O.co2   1  lig        -0.7573
     24 O3         25.6152    8.8731   14.1104 O.3     1  lig        -0.4913
@<TRIPOS>BOND
     1     1    12    1
     2     2    13    1
     3     3    14    1
     4     4    15    1
     5     5    19    1
     6     6    19    1
     7     7    20    1
     8     8    21    1
     9     9    21    1
    10    10    21    1
    11    11    24    1
    12    12    14   ar
    13    12    16   ar
    14    13    15   ar
    15    13    16   ar
    16    14    17   ar
    17    15    17   ar
    18    16    19    1
    19    17    24    1
    20    18    20    1
    21    18    22    1
    22    18    23    1
    23    19    20    1
    24    20    21    1
@<TRIPOS>SUBSTRUCTURE
     1 lig         1 TEMP              0 ****  ****    0 ROOT


########## Name:		ligand
########## HA_RMSDs:		14.4244
########## HA_RMSDh:		14.3736
########## HA_RMSDm:		11.7626
########## Cluster Size:	1
##########    Grid Score:          -21.408829
##########      Grid_vdw:          -14.332973
##########       Grid_es:           -7.075855
##########    Int_energy:            1.184315

@<TRIPOS>MOLECULE
ligand
 24 24 1 0 0
SMALL
No Charge or Current Charge


@<TRIPOS>ATOM
      1 H1          8.0838   10.8561   27.0577 H       1  lig         0.1340
      2 H2         11.9271   12.6666   26.6494 H       1  lig         0.1340
      3 H3          8.1923   10.1828   24.7159 H       1  lig         0.1475
      4 H4         12.0213   12.0332   24.2705 H       1  lig         0.1475
      5 H5         10.7366   12.9553   28.6272 H       1  lig         0.0877
      6 H6          9.0109   12.7796   28.6715 H       1  lig         0.0877
      7 H7         10.1697   10.1319   28.9558 H       1  lig         0.0966
      8 H8          8.0050   10.9285   29.7720 H       1  lig         0.4431
      9 H9          8.8917   10.3783   31.0620 H       1  lig         0.4431
     10 H10         8.7624   12.0160   30.7868 H       1  lig         0.4431
     11 H11        10.5801   11.3415   22.5858 H       1  lig         0.4214
     12 C1          8.9488   11.1257   26.4569 C.ar    1  lig        -0.0999
     13 C2         11.0955   12.1220   26.2085 C.ar    1  lig        -0.0999
     14 C3          9.0147   10.7447   25.1450 C.ar    1  lig        -0.1787
     15 C4         11.1548   11.7771   24.8718 C.ar    1  lig        -0.1787
     16 C5          9.9878   11.8226   26.9933 C.ar    1  lig        -0.1394
     17 C6         10.0726   11.0830   24.3435 C.ar    1  lig         0.1292
     18 C7         11.3300   11.2840   30.2875 C.2     1  lig         0.9321
     19 C8          9.9340   12.2289   28.4537 C.3     1  lig        -0.0452
     20 C9         10.0759   11.0917   29.4660 C.3     1  lig        -0.0740
     21 N1          8.8770   11.0900   30.3035 N.4     1  lig        -0.8252
     22 O1         12.3705   10.9654   29.7161 O.co2   1  lig        -0.7573
     23 O2         11.3242   11.7066   31.4792 O.co2   1  lig        -0.7573
     24 O3         10.0708   10.6785   23.1362 O.3     1  lig        -0.4913
@<TRIPOS>BOND
     1     1    12    1
     2     2    13    1
     3     3    14    1
     4     4    15    1
     5     5    19    1
     6     6    19    1
     7     7    20    1
     8     8    21    1
     9     9    21    1
    10    10    21    1
    11    11    24    1
    12    12    14   ar
    13    12    16   ar
    14    13    15   ar
    15    13    16   ar
    16    14    17   ar
    17    15    17   ar
    18    16    19    1
    19    17    24    1
    20    18    20    1
    21    18    22    1
    22    18    23    1
    23    19    20    1
    24    20    21    1
@<TRIPOS>SUBSTRUCTURE
     1 lig         1 TEMP              0 ****  ****    0 ROOT


########## Name:		ligand
########## HA_RMSDs:		13.3242
########## HA_RMSDh:		13.2639
########## HA_RMSDm:		11.0262
########## Cluster Size:	1
##########    Grid Score:          -21.405729
##########      Grid_vdw:          -18.277668
##########       Grid_es:           -3.128062
##########    Int_energy:            2.146220

@<TRIPOS>MOLECULE
ligand
 24 24 1 0 0
SMALL
No Charge or Current Charge


@<TRIPOS>ATOM
      1 H1          8.6911    8.2319   22.6713 H       1  lig         0.1340
      2 H2         10.1363   12.1216   23.6699 H       1  lig         0.1340
      3 H3         10.6025    7.9431   21.1840 H       1  lig         0.1475
      4 H4         12.0423   11.8562   22.1317 H       1  lig         0.1475
      5 H5          7.6972   11.3857   24.0213 H       1  lig         0.0877
      6 H6          7.2859    9.7032   23.9177 H       1  lig         0.0877
      7 H7          9.4126    9.8054   25.8175 H       1  lig         0.0966
      8 H8          7.4399    8.3580   25.8020 H       1  lig         0.4431
      9 H9          7.5087    9.1500   27.2583 H       1  lig         0.4431
     10 H10         6.4473    9.6698   26.0845 H       1  lig         0.4431
     11 H11        12.5021   10.4258   20.1509 H       1  lig         0.4214
     12 C1          9.4141    9.0357   22.5575 C.ar    1  lig        -0.0999
     13 C2         10.2423   11.1982   23.1053 C.ar    1  lig        -0.0999
     14 C3         10.4898    8.8743   21.7283 C.ar    1  lig        -0.1787
     15 C4         11.3110   11.0616   22.2401 C.ar    1  lig        -0.1787
     16 C5          9.2822   10.2027   23.2455 C.ar    1  lig        -0.1394
     17 C6         11.4121    9.8683   21.5347 C.ar    1  lig         0.1292
     18 C7          8.3779   11.5600   26.3628 C.2     1  lig         0.9321
     19 C8          8.1051   10.3814   24.1855 C.3     1  lig        -0.0452
     20 C9          8.4116   10.2149   25.6742 C.3     1  lig        -0.0740
     21 N1          7.4188    9.2977   26.2325 N.4     1  lig        -0.8252
     22 O1          9.3052   12.3104   26.0667 O.co2   1  lig        -0.7573
     23 O2          7.4926   11.8906   27.2029 O.co2   1  lig        -0.7573
     24 O3         12.3958    9.6385   20.7595 O.3     1  lig        -0.4913
@<TRIPOS>BOND
     1     1    12    1
     2     2    13    1
     3     3    14    1
     4     4    15    1
     5     5    19    1
     6     6    19    1
     7     7    20    1
     8     8    21    1
     9     9    21    1
    10    10    21    1
    11    11    24    1
    12    12    14   ar
    13    12    16   ar
    14    13    15   ar
    15    13    16   ar
    16    14    17   ar
    17    15    17   ar
    18    16    19    1
    19    17    24    1
    20    18    20    1
    21    18    22    1
    22    18    23    1
    23    19    20    1
    24    20    21    1
@<TRIPOS>SUBSTRUCTURE
     1 lig         1 TEMP              0 ****  ****    0 ROOT


########## Name:		ligand
########## HA_RMSDs:		14.3831
########## HA_RMSDh:		14.3825
########## HA_RMSDm:		12.4980
########## Cluster Size:	1
##########    Grid Score:          -21.396700
##########      Grid_vdw:          -19.670780
##########       Grid_es:           -1.725920
##########    Int_energy:            1.978272

@<TRIPOS>MOLECULE
ligand
 24 24 1 0 0
SMALL
No Charge or Current Charge


@<TRIPOS>ATOM
      1 H1         24.9831    4.4519   13.6276 H       1  lig         0.1340
      2 H2         21.6344    6.5087   11.9628 H       1  lig         0.1340
      3 H3         25.9483    6.6032   14.2515 H       1  lig         0.1475
      4 H4         22.6269    8.6869   12.5454 H       1  lig         0.1475
      5 H5         21.9489    4.1859   11.5341 H       1  lig         0.0877
      6 H6         23.4048    3.3366   11.9463 H       1  lig         0.0877
      7 H7         21.6461    3.9740   14.2859 H       1  lig         0.0966
      8 H8         23.6708    2.6043   14.3916 H       1  lig         0.4431
      9 H9         22.3605    1.6467   14.7366 H       1  lig         0.4431
     10 H10        23.0620    1.5745   13.2276 H       1  lig         0.4431
     11 H11        25.8498    8.6277   14.1423 H       1  lig         0.4214
     12 C1         24.4599    5.3718   13.3792 C.ar    1  lig        -0.0999
     13 C2         22.5991    6.5389   12.4638 C.ar    1  lig        -0.0999
     14 C3         24.9962    6.5793   13.7327 C.ar    1  lig        -0.1787
     15 C4         23.1506    7.7657   12.7804 C.ar    1  lig        -0.1787
     16 C5         23.2602    5.3469   12.7365 C.ar    1  lig        -0.1394
     17 C6         24.3853    7.7644   13.4187 C.ar    1  lig         0.1292
     18 C7         20.6087    2.7081   12.9561 C.2     1  lig         0.9321
     19 C8         22.6465    4.0114   12.3616 C.3     1  lig        -0.0452
     20 C9         21.9040    3.2827   13.4822 C.3     1  lig        -0.0740
     21 N1         22.7890    2.2376   13.9955 N.4     1  lig        -0.8252
     22 O1         19.8014    3.5450   12.5580 O.co2   1  lig        -0.7573
     23 O2         20.3474    1.4710   12.9491 O.co2   1  lig        -0.7573
     24 O3         24.9373    8.8483   13.7954 O.3     1  lig        -0.4913
@<TRIPOS>BOND
     1     1    12    1
     2     2    13    1
     3     3    14    1
     4     4    15    1
     5     5    19    1
     6     6    19    1
     7     7    20    1
     8     8    21    1
     9     9    21    1
    10    10    21    1
    11    11    24    1
    12    12    14   ar
    13    12    16   ar
    14    13    15   ar
    15    13    16   ar
    16    14    17   ar
    17    15    17   ar
    18    16    19    1
    19    17    24    1
    20    18    20    1
    21    18    22    1
    22    18    23    1
    23    19    20    1
    24    20    21    1
@<TRIPOS>SUBSTRUCTURE
     1 lig         1 TEMP              0 ****  ****    0 ROOT


########## Name:		ligand
########## HA_RMSDs:		13.6729
########## HA_RMSDh:		13.6627
########## HA_RMSDm:		12.3205
########## Cluster Size:	1
##########    Grid Score:          -21.395273
##########      Grid_vdw:          -20.190971
##########       Grid_es:           -1.204301
##########    Int_energy:            2.416533

@<TRIPOS>MOLECULE
ligand
 24 24 1 0 0
SMALL
No Charge or Current Charge


@<TRIPOS>ATOM
      1 H1          6.8910    9.0638   24.5563 H       1  lig         0.1340
      2 H2         10.0603    8.7768   21.7121 H       1  lig         0.1340
      3 H3          7.5843   11.3508   25.0439 H       1  lig         0.1475
      4 H4         10.7966   11.0687   22.2358 H       1  lig         0.1475
      5 H5          8.8917    6.8020   22.4572 H       1  lig         0.0877
      6 H6          7.6911    6.8284   23.7096 H       1  lig         0.0877
      7 H7          6.0636    7.8668   21.9894 H       1  lig         0.0966
      8 H8          6.0799    5.5083   22.6406 H       1  lig         0.4431
      9 H9          5.7503    5.6112   21.0177 H       1  lig         0.4431
     10 H10         7.2787    5.1853   21.5250 H       1  lig         0.4431
     11 H11        10.5169   12.6440   23.9645 H       1  lig         0.4214
     12 C1          7.7516    9.4885   24.0458 C.ar    1  lig        -0.0999
     13 C2          9.5205    9.3533   22.4597 C.ar    1  lig        -0.0999
     14 C3          8.1393   10.7726   24.3133 C.ar    1  lig        -0.1787
     15 C4          9.9453   10.6355   22.7512 C.ar    1  lig        -0.1787
     16 C5          8.4457    8.7702   23.1211 C.ar    1  lig        -0.1394
     17 C6          9.2316   11.3407   23.7131 C.ar    1  lig         0.1292
     18 C7          7.4288    7.6514   20.3966 C.2     1  lig         0.9321
     19 C8          8.0086    7.3535   22.8006 C.3     1  lig        -0.0452
     20 C9          6.9077    7.2191   21.7480 C.3     1  lig        -0.0740
     21 N1          6.4713    5.8234   21.7370 N.4     1  lig        -0.8252
     22 O1          8.4244    7.0416   20.0125 O.co2   1  lig        -0.7573
     23 O2          6.9136    8.5854   19.7176 O.co2   1  lig        -0.7573
     24 O3          9.5214   12.5467   24.0010 O.3     1  lig        -0.4913
@<TRIPOS>BOND
     1     1    12    1
     2     2    13    1
     3     3    14    1
     4     4    15    1
     5     5    19    1
     6     6    19    1
     7     7    20    1
     8     8    21    1
     9     9    21    1
    10    10    21    1
    11    11    24    1
    12    12    14   ar
    13    12    16   ar
    14    13    15   ar
    15    13    16   ar
    16    14    17   ar
    17    15    17   ar
    18    16    19    1
    19    17    24    1
    20    18    20    1
    21    18    22    1
    22    18    23    1
    23    19    20    1
    24    20    21    1
@<TRIPOS>SUBSTRUCTURE
     1 lig         1 TEMP              0 ****  ****    0 ROOT


########## Name:		ligand
########## HA_RMSDs:		13.0564
########## HA_RMSDh:		12.9985
########## HA_RMSDm:		8.7222
########## Cluster Size:	1
##########    Grid Score:          -21.388224
##########      Grid_vdw:          -21.482075
##########       Grid_es:            0.093851
##########    Int_energy:            2.996935

@<TRIPOS>MOLECULE
ligand
 24 24 1 0 0
SMALL
No Charge or Current Charge


@<TRIPOS>ATOM
      1 H1         16.2232   19.1532   28.9587 H       1  lig         0.1340
      2 H2         13.5175   15.8569   29.1318 H       1  lig         0.1340
      3 H3         17.0023   18.3532   26.7904 H       1  lig         0.1475
      4 H4         14.3350   15.0157   26.9654 H       1  lig         0.1475
      5 H5         14.6890   19.0765   30.6534 H       1  lig         0.0877
      6 H6         13.2435   18.1240   30.5341 H       1  lig         0.0877
      7 H7         14.8013   17.8608   32.6422 H       1  lig         0.0966
      8 H8         16.8179   17.4368   31.3231 H       1  lig         0.4431
      9 H9         16.4820   16.0897   32.2317 H       1  lig         0.4431
     10 H10        16.0999   16.1091   30.6106 H       1  lig         0.4431
     11 H11        17.0607   16.7733   25.4553 H       1  lig         0.4214
     12 C1         15.8059   18.2425   28.5365 C.ar    1  lig        -0.0999
     13 C2         14.3001   16.4014   28.6085 C.ar    1  lig        -0.0999
     14 C3         16.2371   17.7947   27.3182 C.ar    1  lig        -0.1787
     15 C4         14.7566   15.9179   27.3972 C.ar    1  lig        -0.1787
     16 C5         14.8387   17.5431   29.1907 C.ar    1  lig        -0.1394
     17 C6         15.7583   16.6396   26.7589 C.ar    1  lig         0.1292
     18 C7         13.7767   16.1267   32.0177 C.2     1  lig         0.9321
     19 C8         14.3374   18.0453   30.5314 C.3     1  lig        -0.0452
     20 C9         14.7725   17.2322   31.7510 C.3     1  lig        -0.0740
     21 N1         16.1077   16.7016   31.4783 N.4     1  lig        -0.8252
     22 O1         12.6976   16.5068   32.4668 O.co2   1  lig        -0.7573
     23 O2         14.0287   14.9019   31.8303 O.co2   1  lig        -0.7573
     24 O3         16.1960   16.2949   25.6140 O.3     1  lig        -0.4913
@<TRIPOS>BOND
     1     1    12    1
     2     2    13    1
     3     3    14    1
     4     4    15    1
     5     5    19    1
     6     6    19    1
     7     7    20    1
     8     8    21    1
     9     9    21    1
    10    10    21    1
    11    11    24    1
    12    12    14   ar
    13    12    16   ar
    14    13    15   ar
    15    13    16   ar
    16    14    17   ar
    17    15    17   ar
    18    16    19    1
    19    17    24    1
    20    18    20    1
    21    18    22    1
    22    18    23    1
    23    19    20    1
    24    20    21    1
@<TRIPOS>SUBSTRUCTURE
     1 lig         1 TEMP              0 ****  ****    0 ROOT


########## Name:		ligand
########## HA_RMSDs:		13.4422
########## HA_RMSDh:		13.3645
########## HA_RMSDm:		11.0600
########## Cluster Size:	4
##########    Grid Score:          -21.385342
##########      Grid_vdw:          -18.198896
##########       Grid_es:           -3.186445
##########    Int_energy:            3.028600

@<TRIPOS>MOLECULE
ligand
 24 24 1 0 0
SMALL
No Charge or Current Charge


@<TRIPOS>ATOM
      1 H1         10.4512    9.5963   20.5243 H       1  lig         0.1340
      2 H2          8.1693    9.7556   24.1275 H       1  lig         0.1340
      3 H3          8.6853    8.2557   19.5078 H       1  lig         0.1475
      4 H4          6.4048    8.3600   23.1234 H       1  lig         0.1475
      5 H5         11.2529    9.9099   23.4753 H       1  lig         0.0877
      6 H6         11.0791   11.1376   22.2616 H       1  lig         0.0877
      7 H7          8.9635   11.5775   24.1729 H       1  lig         0.0966
      8 H8         10.1357   13.2252   22.7953 H       1  lig         0.4431
      9 H9         10.2912   13.6560   24.3900 H       1  lig         0.4431
     10 H10        11.5629   12.9204   23.6052 H       1  lig         0.4431
     11 H11         5.6872    7.7470   21.0333 H       1  lig         0.4214
     12 C1          9.5734    9.3274   21.1064 C.ar    1  lig        -0.0999
     13 C2          8.2809    9.4093   23.1027 C.ar    1  lig        -0.0999
     14 C3          8.5791    8.5803   20.5372 C.ar    1  lig        -0.1787
     15 C4          7.2889    8.6215   22.5507 C.ar    1  lig        -0.1787
     16 C5          9.4311    9.7402   22.3956 C.ar    1  lig        -0.1394
     17 C6          7.4674    8.1968   21.2393 C.ar    1  lig         0.1292
     18 C7         10.5947   11.1750   25.4473 C.2     1  lig         0.9321
     19 C8         10.5178   10.5890   23.0276 C.3     1  lig        -0.0452
     20 C9         10.0518   11.5789   24.0957 C.3     1  lig        -0.0740
     21 N1         10.5168   12.9085   23.7027 N.4     1  lig        -0.8252
     22 O1         10.1765   10.0978   25.8662 O.co2   1  lig        -0.7573
     23 O2         11.3901   11.8908   26.1209 O.co2   1  lig        -0.7573
     24 O3          6.5764    7.5151   20.6369 O.3     1  lig        -0.4913
@<TRIPOS>BOND
     1     1    12    1
     2     2    13    1
     3     3    14    1
     4     4    15    1
     5     5    19    1
     6     6    19    1
     7     7    20    1
     8     8    21    1
     9     9    21    1
    10    10    21    1
    11    11    24    1
    12    12    14   ar
    13    12    16   ar
    14    13    15   ar
    15    13    16   ar
    16    14    17   ar
    17    15    17   ar
    18    16    19    1
    19    17    24    1
    20    18    20    1
    21    18    22    1
    22    18    23    1
    23    19    20    1
    24    20    21    1
@<TRIPOS>SUBSTRUCTURE
     1 lig         1 TEMP              0 ****  ****    0 ROOT


########## Name:		ligand
########## HA_RMSDs:		13.5705
########## HA_RMSDh:		13.5641
########## HA_RMSDm:		11.5043
########## Cluster Size:	1
##########    Grid Score:          -21.384249
##########      Grid_vdw:          -18.128609
##########       Grid_es:           -3.255640
##########    Int_energy:            2.080490

@<TRIPOS>MOLECULE
ligand
 24 24 1 0 0
SMALL
No Charge or Current Charge


@<TRIPOS>ATOM
      1 H1          8.1609    9.6081   22.9724 H       1  lig         0.1340
      2 H2          9.8551    7.8053   19.4946 H       1  lig         0.1340
      3 H3         10.1478   11.0089   23.1699 H       1  lig         0.1475
      4 H4         11.8863    9.1815   19.7171 H       1  lig         0.1475
      5 H5          6.8803    8.1638   21.7503 H       1  lig         0.0877
      6 H6          7.2340    7.8219   20.0864 H       1  lig         0.0877
      7 H7          8.7060    5.8531   20.9342 H       1  lig         0.0966
      8 H8          6.4675    5.6256   19.9729 H       1  lig         0.4431
      9 H9          6.6252    4.5420   21.2195 H       1  lig         0.4431
     10 H10         5.7732    5.9539   21.4548 H       1  lig         0.4431
     11 H11        12.3789   11.3223   20.7530 H       1  lig         0.4214
     12 C1          8.9720    9.5003   22.2567 C.ar    1  lig        -0.0999
     13 C2          9.9325    8.5141   20.3157 C.ar    1  lig        -0.0999
     14 C3         10.0850   10.2882   22.3619 C.ar    1  lig        -0.1787
     15 C4         11.0785    9.2766   20.4358 C.ar    1  lig        -0.1787
     16 C5          8.8939    8.6040   21.2352 C.ar    1  lig        -0.1394
     17 C6         11.1417   10.1702   21.4985 C.ar    1  lig         0.1292
     18 C7          8.0530    6.0979   22.9243 C.2     1  lig         0.9321
     19 C8          7.6531    7.7424   21.0968 C.3     1  lig        -0.0452
     20 C9          7.8295    6.2625   21.4385 C.3     1  lig        -0.0740
     21 N1          6.6289    5.5570   20.9918 N.4     1  lig        -0.8252
     22 O1          7.1385    6.5186   23.6295 O.co2   1  lig        -0.7573
     23 O2          9.1042    5.5995   23.4196 O.co2   1  lig        -0.7573
     24 O3         12.1370   10.9499   21.6499 O.3     1  lig        -0.4913
@<TRIPOS>BOND
     1     1    12    1
     2     2    13    1
     3     3    14    1
     4     4    15    1
     5     5    19    1
     6     6    19    1
     7     7    20    1
     8     8    21    1
     9     9    21    1
    10    10    21    1
    11    11    24    1
    12    12    14   ar
    13    12    16   ar
    14    13    15   ar
    15    13    16   ar
    16    14    17   ar
    17    15    17   ar
    18    16    19    1
    19    17    24    1
    20    18    20    1
    21    18    22    1
    22    18    23    1
    23    19    20    1
    24    20    21    1
@<TRIPOS>SUBSTRUCTURE
     1 lig         1 TEMP              0 ****  ****    0 ROOT


########## Name:		ligand
########## HA_RMSDs:		14.6828
########## HA_RMSDh:		14.5903
########## HA_RMSDm:		12.8016
########## Cluster Size:	1
##########    Grid Score:          -21.361847
##########      Grid_vdw:          -14.339244
##########       Grid_es:           -7.022602
##########    Int_energy:            5.236493

@<TRIPOS>MOLECULE
ligand
 24 24 1 0 0
SMALL
No Charge or Current Charge


@<TRIPOS>ATOM
      1 H1         24.7749    8.6181   12.4436 H       1  lig         0.1340
      2 H2         24.6422    5.1922   14.9856 H       1  lig         0.1340
      3 H3         22.6821    7.8952   11.4206 H       1  lig         0.1475
      4 H4         22.5546    4.4299   13.9226 H       1  lig         0.1475
      5 H5         26.3888    8.3827   14.0132 H       1  lig         0.0877
      6 H6         26.0002    7.5573   15.4891 H       1  lig         0.0877
      7 H7         27.5995    5.9623   15.1475 H       1  lig         0.0966
      8 H8         28.7416    8.0192   14.4757 H       1  lig         0.4431
      9 H9         29.3382    6.7596   13.5755 H       1  lig         0.4431
     10 H10        28.2376    7.8106   12.8983 H       1  lig         0.4431
     11 H11        20.6905    5.8221   12.7055 H       1  lig         0.4214
     12 C1         24.3025    7.6959   12.7724 C.ar    1  lig        -0.0999
     13 C2         24.2043    5.7830   14.1845 C.ar    1  lig        -0.0999
     14 C3         23.1261    7.2910   12.2042 C.ar    1  lig        -0.1787
     15 C4         23.0369    5.3437   13.5900 C.ar    1  lig        -0.1787
     16 C5         24.8507    6.9389   13.7620 C.ar    1  lig        -0.1394
     17 C6         22.5081    6.1242   12.5688 C.ar    1  lig         0.1292
     18 C7         27.0185    5.4022   13.1992 C.2     1  lig         0.9321
     19 C8         26.1429    7.3925   14.4143 C.3     1  lig        -0.0452
     20 C9         27.3470    6.4712   14.2161 C.3     1  lig        -0.0740
     21 N1         28.4733    7.2984   13.7849 N.4     1  lig        -0.8252
     22 O1         26.9736    4.2606   13.6524 O.co2   1  lig        -0.7573
     23 O2         26.8340    5.6417   11.9714 O.co2   1  lig        -0.7573
     24 O3         21.4066    5.8214   12.0063 O.3     1  lig        -0.4913
@<TRIPOS>BOND
     1     1    12    1
     2     2    13    1
     3     3    14    1
     4     4    15    1
     5     5    19    1
     6     6    19    1
     7     7    20    1
     8     8    21    1
     9     9    21    1
    10    10    21    1
    11    11    24    1
    12    12    14   ar
    13    12    16   ar
    14    13    15   ar
    15    13    16   ar
    16    14    17   ar
    17    15    17   ar
    18    16    19    1
    19    17    24    1
    20    18    20    1
    21    18    22    1
    22    18    23    1
    23    19    20    1
    24    20    21    1
@<TRIPOS>SUBSTRUCTURE
     1 lig         1 TEMP              0 ****  ****    0 ROOT


########## Name:		ligand
########## HA_RMSDs:		13.1705
########## HA_RMSDh:		13.1251
########## HA_RMSDm:		10.8759
########## Cluster Size:	1
##########    Grid Score:          -21.338140
##########      Grid_vdw:          -18.291653
##########       Grid_es:           -3.046488
##########    Int_energy:            3.443933

@<TRIPOS>MOLECULE
ligand
 24 24 1 0 0
SMALL
No Charge or Current Charge


@<TRIPOS>ATOM
      1 H1          9.7974    6.8862   23.7521 H       1  lig         0.1340
      2 H2         10.0288    9.3333   20.2630 H       1  lig         0.1340
      3 H3          8.0157    5.6032   22.6900 H       1  lig         0.1475
      4 H4          8.1957    8.0732   19.2042 H       1  lig         0.1475
      5 H5         10.8086    9.2544   23.7473 H       1  lig         0.0877
      6 H6         12.0170    8.3665   22.8743 H       1  lig         0.0877
      7 H7         10.6829   10.7467   21.5342 H       1  lig         0.0966
      8 H8         12.1575    9.2527   20.2771 H       1  lig         0.4431
      9 H9         12.9140   10.7179   20.4611 H       1  lig         0.4431
     10 H10        13.3560    9.4332   21.4247 H       1  lig         0.4431
     11 H11         7.2163    5.9678   19.4326 H       1  lig         0.4214
     12 C1          9.4518    7.1605   22.7586 C.ar    1  lig        -0.0999
     13 C2          9.5685    8.5076   20.8004 C.ar    1  lig        -0.0999
     14 C3          8.4566    6.4394   22.1585 C.ar    1  lig        -0.1787
     15 C4          8.5366    7.8111   20.2008 C.ar    1  lig        -0.1787
     16 C5         10.0083    8.2033   22.0835 C.ar    1  lig        -0.1394
     17 C6          7.9722    6.7635   20.9189 C.ar    1  lig         0.1292
     18 C7         12.1120   11.2674   22.9949 C.2     1  lig         0.9321
     19 C8         11.1288    8.9940   22.7317 C.3     1  lig        -0.0452
     20 C9         11.5454   10.2741   22.0065 C.3     1  lig        -0.0740
     21 N1         12.5272    9.9077   20.9865 N.4     1  lig        -0.8252
     22 O1         13.2495   11.0114   23.3834 O.co2   1  lig        -0.7573
     23 O2         11.4688   12.2684   23.4229 O.co2   1  lig        -0.7573
     24 O3          7.0555    6.0354   20.4181 O.3     1  lig        -0.4913
@<TRIPOS>BOND
     1     1    12    1
     2     2    13    1
     3     3    14    1
     4     4    15    1
     5     5    19    1
     6     6    19    1
     7     7    20    1
     8     8    21    1
     9     9    21    1
    10    10    21    1
    11    11    24    1
    12    12    14   ar
    13    12    16   ar
    14    13    15   ar
    15    13    16   ar
    16    14    17   ar
    17    15    17   ar
    18    16    19    1
    19    17    24    1
    20    18    20    1
    21    18    22    1
    22    18    23    1
    23    19    20    1
    24    20    21    1
@<TRIPOS>SUBSTRUCTURE
     1 lig         1 TEMP              0 ****  ****    0 ROOT


########## Name:		ligand
########## HA_RMSDs:		12.9237
########## HA_RMSDh:		12.8634
########## HA_RMSDm:		11.1194
########## Cluster Size:	1
##########    Grid Score:          -21.303453
##########      Grid_vdw:          -18.394857
##########       Grid_es:           -2.908597
##########    Int_energy:            2.531453

@<TRIPOS>MOLECULE
ligand
 24 24 1 0 0
SMALL
No Charge or Current Charge


@<TRIPOS>ATOM
      1 H1          7.2064    9.2650   23.7208 H       1  lig         0.1340
      2 H2         10.8206   10.6056   21.8890 H       1  lig         0.1340
      3 H3          6.6669    8.0444   21.6793 H       1  lig         0.1475
      4 H4         10.2579    9.4159   19.8064 H       1  lig         0.1475
      5 H5          9.0544   11.8145   24.0761 H       1  lig         0.0877
      6 H6          8.8003   10.3975   25.0447 H       1  lig         0.0877
      7 H7         11.4409   10.1539   23.8975 H       1  lig         0.0966
      8 H8         10.6224    9.2689   26.0267 H       1  lig         0.4431
      9 H9         11.9366   10.2379   26.3218 H       1  lig         0.4431
     10 H10        10.4017   10.8167   26.6110 H       1  lig         0.4431
     11 H11         8.8635    7.8839   19.0166 H       1  lig         0.4214
     12 C1          7.8800    9.3115   22.8689 C.ar    1  lig        -0.0999
     13 C2          9.8930   10.0410   21.8305 C.ar    1  lig        -0.0999
     14 C3          7.5826    8.6236   21.7248 C.ar    1  lig        -0.1787
     15 C4          9.5831    9.3826   20.6559 C.ar    1  lig        -0.1787
     16 C5          9.0352   10.0294   22.9243 C.ar    1  lig        -0.1394
     17 C6          8.3886    8.6730   20.6184 C.ar    1  lig         0.1292
     18 C7         11.4233   12.1767   24.4934 C.2     1  lig         0.9321
     19 C8          9.3848   10.7762   24.1975 C.3     1  lig        -0.0452
     20 C9         10.8641   10.7753   24.5842 C.3     1  lig        -0.0740
     21 N1         10.9686   10.2393   25.9408 N.4     1  lig        -0.8252
     22 O1         12.4692   12.2704   23.8547 O.co2   1  lig        -0.7573
     23 O2         10.8885   13.1776   25.0510 O.co2   1  lig        -0.7573
     24 O3          8.0541    7.9929   19.5952 O.3     1  lig        -0.4913
@<TRIPOS>BOND
     1     1    12    1
     2     2    13    1
     3     3    14    1
     4     4    15    1
     5     5    19    1
     6     6    19    1
     7     7    20    1
     8     8    21    1
     9     9    21    1
    10    10    21    1
    11    11    24    1
    12    12    14   ar
    13    12    16   ar
    14    13    15   ar
    15    13    16   ar
    16    14    17   ar
    17    15    17   ar
    18    16    19    1
    19    17    24    1
    20    18    20    1
    21    18    22    1
    22    18    23    1
    23    19    20    1
    24    20    21    1
@<TRIPOS>SUBSTRUCTURE
     1 lig         1 TEMP              0 ****  ****    0 ROOT


########## Name:		ligand
########## HA_RMSDs:		10.4531
########## HA_RMSDh:		10.3585
########## HA_RMSDm:		8.5861
########## Cluster Size:	1
##########    Grid Score:          -21.295773
##########      Grid_vdw:          -17.806379
##########       Grid_es:           -3.489393
##########    Int_energy:            1.123491

@<TRIPOS>MOLECULE
ligand
 24 24 1 0 0
SMALL
No Charge or Current Charge


@<TRIPOS>ATOM
      1 H1         14.2056    9.2192   21.2634 H       1  lig         0.1340
      2 H2         12.3388   11.8098   24.0952 H       1  lig         0.1340
      3 H3         12.0489    8.9285   20.1619 H       1  lig         0.1475
      4 H4         10.1480   11.4811   23.0175 H       1  lig         0.1475
      5 H5         14.6677   10.3051   24.4544 H       1  lig         0.0877
      6 H6         15.5196   10.1063   22.9559 H       1  lig         0.0877
      7 H7         14.4170   12.8552   23.3535 H       1  lig         0.0966
      8 H8         15.9205   12.1856   21.5430 H       1  lig         0.4431
      9 H9         16.7049   13.2826   22.5095 H       1  lig         0.4431
     10 H10        17.0547   11.6601   22.6490 H       1  lig         0.4431
     11 H11        10.1172    9.7210   19.9400 H       1  lig         0.4214
     12 C1         13.3239    9.7151   21.6613 C.ar    1  lig        -0.0999
     13 C2         12.2637   11.1622   23.2249 C.ar    1  lig        -0.0999
     14 C3         12.1143    9.5582   21.0425 C.ar    1  lig        -0.1787
     15 C4         11.0293   10.9789   22.6315 C.ar    1  lig        -0.1787
     16 C5         13.4024   10.5139   22.7607 C.ar    1  lig        -0.1394
     17 C6         10.9725   10.1431   21.5224 C.ar    1  lig         0.1292
     18 C7         15.7725   12.4371   24.9139 C.2     1  lig         0.9321
     19 C8         14.7442   10.7127   23.4396 C.3     1  lig        -0.0452
     20 C9         15.2372   12.1574   23.5282 C.3     1  lig        -0.0740
     21 N1         16.2662   12.3395   22.5052 N.4     1  lig        -0.8252
     22 O1         15.0125   13.0774   25.6370 O.co2   1  lig        -0.7573
     23 O2         16.9204   12.0770   25.3031 O.co2   1  lig        -0.7573
     24 O3          9.8861    9.9641   20.8829 O.3     1  lig        -0.4913
@<TRIPOS>BOND
     1     1    12    1
     2     2    13    1
     3     3    14    1
     4     4    15    1
     5     5    19    1
     6     6    19    1
     7     7    20    1
     8     8    21    1
     9     9    21    1
    10    10    21    1
    11    11    24    1
    12    12    14   ar
    13    12    16   ar
    14    13    15   ar
    15    13    16   ar
    16    14    17   ar
    17    15    17   ar
    18    16    19    1
    19    17    24    1
    20    18    20    1
    21    18    22    1
    22    18    23    1
    23    19    20    1
    24    20    21    1
@<TRIPOS>SUBSTRUCTURE
     1 lig         1 TEMP              0 ****  ****    0 ROOT


########## Name:		ligand
########## HA_RMSDs:		13.7963
########## HA_RMSDh:		13.7324
########## HA_RMSDm:		11.2697
########## Cluster Size:	8
##########    Grid Score:          -21.285330
##########      Grid_vdw:          -20.239239
##########       Grid_es:           -1.046091
##########    Int_energy:            1.280126

@<TRIPOS>MOLECULE
ligand
 24 24 1 0 0
SMALL
No Charge or Current Charge


@<TRIPOS>ATOM
      1 H1         10.3705    9.4208   20.9501 H       1  lig         0.1340
      2 H2          7.7740    9.0352   24.3154 H       1  lig         0.1340
      3 H3          8.7707    8.1519   19.6162 H       1  lig         0.1475
      4 H4          6.1774    7.7102   22.9871 H       1  lig         0.1475
      5 H5         10.1690    9.6703   24.5634 H       1  lig         0.0877
      6 H6         11.1910    9.9478   23.1890 H       1  lig         0.0877
      7 H7          9.1618   11.8961   22.8883 H       1  lig         0.0966
      8 H8         11.5685   12.1122   22.5033 H       1  lig         0.4431
      9 H9         11.0799   13.3282   23.5209 H       1  lig         0.4431
     10 H10        11.8638   11.9961   24.1419 H       1  lig         0.4431
     11 H11         5.8195    6.9113   20.9879 H       1  lig         0.4214
     12 C1          9.4593    9.0467   21.4100 C.ar    1  lig        -0.0999
     13 C2          7.9929    8.8257   23.2710 C.ar    1  lig        -0.0999
     14 C3          8.5579    8.3395   20.6629 C.ar    1  lig        -0.1787
     15 C4          7.0944    8.0761   22.5362 C.ar    1  lig        -0.1787
     16 C5          9.1831    9.2875   22.7209 C.ar    1  lig        -0.1394
     17 C6          7.4091    7.8276   21.2054 C.ar    1  lig         0.1292
     18 C7          9.2856   11.9216   24.9932 C.2     1  lig         0.9321
     19 C8         10.1657   10.0912   23.5512 C.3     1  lig        -0.0452
     20 C9          9.8855   11.5914   23.6457 C.3     1  lig        -0.0740
     21 N1         11.1499   12.2942   23.4310 N.4     1  lig        -0.8252
     22 O1          8.0616   11.8241   25.0468 O.co2   1  lig        -0.7573
     23 O2          9.9701   12.3005   25.9865 O.co2   1  lig        -0.7573
     24 O3          6.6102    7.1935   20.4431 O.3     1  lig        -0.4913
@<TRIPOS>BOND
     1     1    12    1
     2     2    13    1
     3     3    14    1
     4     4    15    1
     5     5    19    1
     6     6    19    1
     7     7    20    1
     8     8    21    1
     9     9    21    1
    10    10    21    1
    11    11    24    1
    12    12    14   ar
    13    12    16   ar
    14    13    15   ar
    15    13    16   ar
    16    14    17   ar
    17    15    17   ar
    18    16    19    1
    19    17    24    1
    20    18    20    1
    21    18    22    1
    22    18    23    1
    23    19    20    1
    24    20    21    1
@<TRIPOS>SUBSTRUCTURE
     1 lig         1 TEMP              0 ****  ****    0 ROOT


########## Name:		ligand
########## HA_RMSDs:		12.5930
########## HA_RMSDh:		12.5350
########## HA_RMSDm:		10.5119
########## Cluster Size:	1
##########    Grid Score:          -21.274437
##########      Grid_vdw:          -17.769896
##########       Grid_es:           -3.504541
##########    Int_energy:            2.001516

@<TRIPOS>MOLECULE
ligand
 24 24 1 0 0
SMALL
No Charge or Current Charge


@<TRIPOS>ATOM
      1 H1         11.2659    6.9705   23.1374 H       1  lig         0.1340
      2 H2         11.3691   10.8723   21.4109 H       1  lig         0.1340
      3 H3         13.6910    7.0547   23.3835 H       1  lig         0.1475
      4 H4         13.8235   10.9436   21.6106 H       1  lig         0.1475
      5 H5          9.2374    8.6767   23.0927 H       1  lig         0.0877
      6 H6          9.2679    9.8516   21.8163 H       1  lig         0.0877
      7 H7          9.4163    6.8202   21.4221 H       1  lig         0.0966
      8 H8         10.6699    8.0903   19.7482 H       1  lig         0.4431
      9 H9          9.2855    7.5042   19.0461 H       1  lig         0.4431
     10 H10         9.3652    9.1030   19.5067 H       1  lig         0.4431
     11 H11        15.5479    9.7939   22.2977 H       1  lig         0.4214
     12 C1         11.8144    7.8436   22.7933 C.ar    1  lig        -0.0999
     13 C2         11.8947   10.0225   21.8400 C.ar    1  lig        -0.0999
     14 C3         13.1738    7.8958   22.9350 C.ar    1  lig        -0.1787
     15 C4         13.2720   10.0693   21.9416 C.ar    1  lig        -0.1787
     16 C5         11.1689    8.9058   22.2383 C.ar    1  lig        -0.1394
     17 C6         13.9088    8.9641   22.4937 C.ar    1  lig         0.1292
     18 C7          7.5966    7.8487   21.1425 C.2     1  lig         0.9321
     19 C8          9.6590    8.8667   22.0988 C.3     1  lig        -0.0452
     20 C9          9.1078    7.8239   21.1257 C.3     1  lig        -0.0740
     21 N1          9.6380    8.1310   19.7978 N.4     1  lig        -0.8252
     22 O1          7.0947    7.7277   22.2579 O.co2   1  lig        -0.7573
     23 O2          6.8899    7.9519   20.0991 O.co2   1  lig        -0.7573
     24 O3         15.1690    8.9479   22.6751 O.3     1  lig        -0.4913
@<TRIPOS>BOND
     1     1    12    1
     2     2    13    1
     3     3    14    1
     4     4    15    1
     5     5    19    1
     6     6    19    1
     7     7    20    1
     8     8    21    1
     9     9    21    1
    10    10    21    1
    11    11    24    1
    12    12    14   ar
    13    12    16   ar
    14    13    15   ar
    15    13    16   ar
    16    14    17   ar
    17    15    17   ar
    18    16    19    1
    19    17    24    1
    20    18    20    1
    21    18    22    1
    22    18    23    1
    23    19    20    1
    24    20    21    1
@<TRIPOS>SUBSTRUCTURE
     1 lig         1 TEMP              0 ****  ****    0 ROOT


########## Name:		ligand
########## HA_RMSDs:		12.9024
########## HA_RMSDh:		12.8626
########## HA_RMSDm:		10.8716
########## Cluster Size:	1
##########    Grid Score:          -21.255302
##########      Grid_vdw:          -20.877138
##########       Grid_es:           -0.378164
##########    Int_energy:            2.601188

@<TRIPOS>MOLECULE
ligand
 24 24 1 0 0
SMALL
No Charge or Current Charge


@<TRIPOS>ATOM
      1 H1         10.8337    7.5599   21.3424 H       1  lig         0.1340
      2 H2          9.0485   10.9718   23.1828 H       1  lig         0.1340
      3 H3         12.9541    8.7620   21.2542 H       1  lig         0.1475
      4 H4         11.1744   12.2097   23.0514 H       1  lig         0.1475
      5 H5          8.5994    7.6498   23.0618 H       1  lig         0.0877
      6 H6          7.6953    9.0920   22.7254 H       1  lig         0.0877
      7 H7          8.7504    7.1677   20.5910 H       1  lig         0.0966
      8 H8          8.5754    9.4967   19.8619 H       1  lig         0.4431
      9 H9          7.3512    8.6246   19.1594 H       1  lig         0.4431
     10 H10         7.0255    9.5953   20.4732 H       1  lig         0.4431
     11 H11        13.8158   10.7590   21.2369 H       1  lig         0.4214
     12 C1         10.8931    8.5796   21.7143 C.ar    1  lig        -0.0999
     13 C2          9.9204   10.4906   22.7460 C.ar    1  lig        -0.0999
     14 C3         12.0822    9.2541   21.6710 C.ar    1  lig        -0.1787
     15 C4         11.1064   11.1955   22.6708 C.ar    1  lig        -0.1787
     16 C5          9.8040    9.1984   22.2469 C.ar    1  lig        -0.1394
     17 C6         12.1984   10.5481   22.1048 C.ar    1  lig         0.1292
     18 C7          6.7559    7.0087   21.2570 C.2     1  lig         0.9321
     19 C8          8.4868    8.4497   22.3207 C.3     1  lig        -0.0452
     20 C9          7.9962    7.8361   21.0089 C.3     1  lig        -0.0740
     21 N1          7.7364    8.9316   20.0756 N.4     1  lig        -0.8252
     22 O1          5.9841    7.4795   22.0896 O.co2   1  lig        -0.7573
     23 O2          6.5306    5.9028   20.6867 O.co2   1  lig        -0.7573
     24 O3         13.3420   11.1051   22.0477 O.3     1  lig        -0.4913
@<TRIPOS>BOND
     1     1    12    1
     2     2    13    1
     3     3    14    1
     4     4    15    1
     5     5    19    1
     6     6    19    1
     7     7    20    1
     8     8    21    1
     9     9    21    1
    10    10    21    1
    11    11    24    1
    12    12    14   ar
    13    12    16   ar
    14    13    15   ar
    15    13    16   ar
    16    14    17   ar
    17    15    17   ar
    18    16    19    1
    19    17    24    1
    20    18    20    1
    21    18    22    1
    22    18    23    1
    23    19    20    1
    24    20    21    1
@<TRIPOS>SUBSTRUCTURE
     1 lig         1 TEMP              0 ****  ****    0 ROOT


########## Name:		ligand
########## HA_RMSDs:		12.8833
########## HA_RMSDh:		12.8159
########## HA_RMSDm:		10.6733
########## Cluster Size:	4
##########    Grid Score:          -21.247450
##########      Grid_vdw:          -20.385761
##########       Grid_es:           -0.861689
##########    Int_energy:            1.172001

@<TRIPOS>MOLECULE
ligand
 24 24 1 0 0
SMALL
No Charge or Current Charge


@<TRIPOS>ATOM
      1 H1          9.9653    8.0533   19.8065 H       1  lig         0.1340
      2 H2          8.8143   10.0910   23.3757 H       1  lig         0.1340
      3 H3          7.8012    6.9285   19.7940 H       1  lig         0.1475
      4 H4          6.6464    8.9211   23.3967 H       1  lig         0.1475
      5 H5         11.1771    9.9797   20.5638 H       1  lig         0.0877
      6 H6         10.7673   10.8582   22.0029 H       1  lig         0.0877
      7 H7         11.8947    8.0525   22.2852 H       1  lig         0.0966
      8 H8         11.0340    9.2827   24.2172 H       1  lig         0.4431
      9 H9         12.6823    9.1551   24.3574 H       1  lig         0.4431
     10 H10        12.0050   10.5886   23.8467 H       1  lig         0.4431
     11 H11         5.4156    7.5231   22.2593 H       1  lig         0.4214
     12 C1          9.2502    8.2476   20.6019 C.ar    1  lig        -0.0999
     13 C2          8.5847    9.3780   22.5873 C.ar    1  lig        -0.0999
     14 C3          8.0338    7.6223   20.5944 C.ar    1  lig        -0.1787
     15 C4          7.3688    8.7220   22.6115 C.ar    1  lig        -0.1787
     16 C5          9.5336    9.1246   21.6036 C.ar    1  lig        -0.1394
     17 C6          7.1118    7.8170   21.5884 C.ar    1  lig         0.1292
     18 C7         13.3340    9.4959   21.7449 C.2     1  lig         0.9321
     19 C8         10.8709    9.8405   21.6072 C.3     1  lig        -0.0452
     20 C9         12.0006    9.1358   22.3590 C.3     1  lig        -0.0740
     21 N1         11.9241    9.5446   23.7611 N.4     1  lig        -0.8252
     22 O1         13.6796   10.6625   21.9188 O.co2   1  lig        -0.7573
     23 O2         14.0346    8.6838   21.0754 O.co2   1  lig        -0.7573
     24 O3          5.9945    7.2120   21.5045 O.3     1  lig        -0.4913
@<TRIPOS>BOND
     1     1    12    1
     2     2    13    1
     3     3    14    1
     4     4    15    1
     5     5    19    1
     6     6    19    1
     7     7    20    1
     8     8    21    1
     9     9    21    1
    10    10    21    1
    11    11    24    1
    12    12    14   ar
    13    12    16   ar
    14    13    15   ar
    15    13    16   ar
    16    14    17   ar
    17    15    17   ar
    18    16    19    1
    19    17    24    1
    20    18    20    1
    21    18    22    1
    22    18    23    1
    23    19    20    1
    24    20    21    1
@<TRIPOS>SUBSTRUCTURE
     1 lig         1 TEMP              0 ****  ****    0 ROOT


########## Name:		ligand
########## HA_RMSDs:		13.6336
########## HA_RMSDh:		13.6107
########## HA_RMSDm:		11.6199
########## Cluster Size:	1
##########    Grid Score:          -21.242174
##########      Grid_vdw:          -18.208696
##########       Grid_es:           -3.033478
##########    Int_energy:            1.340877

@<TRIPOS>MOLECULE
ligand
 24 24 1 0 0
SMALL
No Charge or Current Charge


@<TRIPOS>ATOM
      1 H1          9.1644    8.9633   24.6222 H       1  lig         0.1340
      2 H2          8.4766    7.7316   20.5941 H       1  lig         0.1340
      3 H3          6.8145    8.5357   25.1160 H       1  lig         0.1475
      4 H4          6.0912    7.3452   21.0733 H       1  lig         0.1475
      5 H5         10.9742    8.6273   23.2130 H       1  lig         0.0877
      6 H6         10.8487    7.8120   21.6866 H       1  lig         0.0877
      7 H7          9.8229   10.4937   21.3060 H       1  lig         0.0966
      8 H8         10.8853    9.0300   19.6580 H       1  lig         0.4431
      9 H9         11.7474   10.4447   19.7490 H       1  lig         0.4431
     10 H10        12.3209    9.0774   20.5080 H       1  lig         0.4431
     11 H11         5.1036    7.2669   24.3672 H       1  lig         0.4214
     12 C1          8.5009    8.6153   23.8346 C.ar    1  lig        -0.0999
     13 C2          8.0963    7.9175   21.5958 C.ar    1  lig        -0.0999
     14 C3          7.1840    8.3694   24.1101 C.ar    1  lig        -0.1787
     15 C4          6.7555    7.7042   21.8530 C.ar    1  lig        -0.1787
     16 C5          8.9618    8.3961   22.5727 C.ar    1  lig        -0.1394
     17 C6          6.3060    7.9541   23.1442 C.ar    1  lig         0.1292
     18 C7         11.5734   10.8482   22.4271 C.2     1  lig         0.9321
     19 C8         10.4262    8.6434   22.2637 C.3     1  lig        -0.0452
     20 C9         10.7411    9.9523   21.5388 C.3     1  lig        -0.0740
     21 N1         11.4434    9.6168   20.3007 N.4     1  lig        -0.8252
     22 O1         10.9713   11.3160   23.3911 O.co2   1  lig        -0.7573
     23 O2         12.7837   11.1303   22.1940 O.co2   1  lig        -0.7573
     24 O3          5.0983    7.7302   23.4801 O.3     1  lig        -0.4913
@<TRIPOS>BOND
     1     1    12    1
     2     2    13    1
     3     3    14    1
     4     4    15    1
     5     5    19    1
     6     6    19    1
     7     7    20    1
     8     8    21    1
     9     9    21    1
    10    10    21    1
    11    11    24    1
    12    12    14   ar
    13    12    16   ar
    14    13    15   ar
    15    13    16   ar
    16    14    17   ar
    17    15    17   ar
    18    16    19    1
    19    17    24    1
    20    18    20    1
    21    18    22    1
    22    18    23    1
    23    19    20    1
    24    20    21    1
@<TRIPOS>SUBSTRUCTURE
     1 lig         1 TEMP              0 ****  ****    0 ROOT


########## Name:		ligand
########## HA_RMSDs:		13.6134
########## HA_RMSDh:		13.6134
########## HA_RMSDm:		11.6625
########## Cluster Size:	1
##########    Grid Score:          -21.237453
##########      Grid_vdw:          -15.785654
##########       Grid_es:           -5.451799
##########    Int_energy:            2.431269

@<TRIPOS>MOLECULE
ligand
 24 24 1 0 0
SMALL
No Charge or Current Charge


@<TRIPOS>ATOM
      1 H1          9.8596    8.0153   24.0275 H       1  lig         0.1340
      2 H2          8.9002    8.4517   19.8917 H       1  lig         0.1340
      3 H3         11.6453    9.6531   23.7489 H       1  lig         0.1475
      4 H4         10.7341   10.0691   19.5919 H       1  lig         0.1475
      5 H5          8.2512    6.6755   23.1462 H       1  lig         0.0877
      6 H6          7.1852    7.6119   22.1475 H       1  lig         0.0877
      7 H7          8.6681    6.2518   20.2173 H       1  lig         0.0966
      8 H8          6.2426    6.5357   20.3707 H       1  lig         0.4431
      9 H9          6.5773    4.9284   20.1311 H       1  lig         0.4431
     10 H10         6.1765    5.4707   21.6542 H       1  lig         0.4431
     11 H11        12.2817   11.1613   20.6761 H       1  lig         0.4214
     12 C1         10.0445    8.4527   23.0496 C.ar    1  lig        -0.0999
     13 C2          9.5224    8.7173   20.7431 C.ar    1  lig        -0.0999
     14 C3         11.0417    9.3754   22.8917 C.ar    1  lig        -0.1787
     15 C4         10.5527    9.6204   20.5634 C.ar    1  lig        -0.1787
     16 C5          9.2837    8.1145   21.9728 C.ar    1  lig        -0.1394
     17 C6         11.3271    9.9340   21.6741 C.ar    1  lig         0.1292
     18 C7          8.7936    4.7445   21.6867 C.2     1  lig         0.9321
     19 C8          8.1602    7.1097   22.1437 C.3     1  lig        -0.0452
     20 C9          8.1220    5.9744   21.1201 C.3     1  lig        -0.0740
     21 N1          6.7201    5.7203   20.7903 N.4     1  lig        -0.8252
     22 O1          9.8765    4.9558   22.2282 O.co2   1  lig        -0.7573
     23 O2          8.3098    3.5802   21.5912 O.co2   1  lig        -0.7573
     24 O3         12.2600   10.7982   21.6084 O.3     1  lig        -0.4913
@<TRIPOS>BOND
     1     1    12    1
     2     2    13    1
     3     3    14    1
     4     4    15    1
     5     5    19    1
     6     6    19    1
     7     7    20    1
     8     8    21    1
     9     9    21    1
    10    10    21    1
    11    11    24    1
    12    12    14   ar
    13    12    16   ar
    14    13    15   ar
    15    13    16   ar
    16    14    17   ar
    17    15    17   ar
    18    16    19    1
    19    17    24    1
    20    18    20    1
    21    18    22    1
    22    18    23    1
    23    19    20    1
    24    20    21    1
@<TRIPOS>SUBSTRUCTURE
     1 lig         1 TEMP              0 ****  ****    0 ROOT


########## Name:		ligand
########## HA_RMSDs:		13.4786
########## HA_RMSDh:		13.4288
########## HA_RMSDm:		11.1322
########## Cluster Size:	1
##########    Grid Score:          -21.171122
##########      Grid_vdw:          -18.232168
##########       Grid_es:           -2.938953
##########    Int_energy:            1.134046

@<TRIPOS>MOLECULE
ligand
 24 24 1 0 0
SMALL
No Charge or Current Charge


@<TRIPOS>ATOM
      1 H1         10.2515    6.6570   22.3298 H       1  lig         0.1340
      2 H2          8.8123    9.8499   19.8905 H       1  lig         0.1340
      3 H3          8.1223    5.5085   22.0196 H       1  lig         0.1475
      4 H4          6.6414    8.7185   19.6142 H       1  lig         0.1475
      5 H5         11.7453    8.2844   21.5328 H       1  lig         0.0877
      6 H6         11.3071    9.5066   20.3818 H       1  lig         0.0877
      7 H7         10.0252   10.3893   22.7301 H       1  lig         0.0966
      8 H8         11.2726   11.6927   21.0772 H       1  lig         0.4431
      9 H9         11.8696   12.0349   22.5870 H       1  lig         0.4431
     10 H10        12.7062   11.0030   21.5821 H       1  lig         0.4431
     11 H11         6.2267    5.5674   21.3006 H       1  lig         0.4214
     12 C1          9.4672    7.1223   21.7380 C.ar    1  lig        -0.0999
     13 C2          8.6469    8.8875   20.3693 C.ar    1  lig        -0.0999
     14 C3          8.2743    6.4780   21.5580 C.ar    1  lig        -0.1787
     15 C4          7.4236    8.2640   20.2138 C.ar    1  lig        -0.1787
     16 C5          9.6564    8.3346   21.1488 C.ar    1  lig        -0.1394
     17 C6          7.2490    7.0364   20.8417 C.ar    1  lig         0.1292
     18 C7         11.7230    9.5420   23.6500 C.2     1  lig         0.9321
     19 C8         10.9848    9.0458   21.3234 C.3     1  lig        -0.0452
     20 C9         11.0333   10.1026   22.4274 C.3     1  lig        -0.0740
     21 N1         11.7392   11.2681   21.8963 N.4     1  lig        -0.8252
     22 O1         10.9714    9.0062   24.4615 O.co2   1  lig        -0.7573
     23 O2         12.9675    9.6370   23.8528 O.co2   1  lig        -0.7573
     24 O3          6.1733    6.3691   20.7039 O.3     1  lig        -0.4913
@<TRIPOS>BOND
     1     1    12    1
     2     2    13    1
     3     3    14    1
     4     4    15    1
     5     5    19    1
     6     6    19    1
     7     7    20    1
     8     8    21    1
     9     9    21    1
    10    10    21    1
    11    11    24    1
    12    12    14   ar
    13    12    16   ar
    14    13    15   ar
    15    13    16   ar
    16    14    17   ar
    17    15    17   ar
    18    16    19    1
    19    17    24    1
    20    18    20    1
    21    18    22    1
    22    18    23    1
    23    19    20    1
    24    20    21    1
@<TRIPOS>SUBSTRUCTURE
     1 lig         1 TEMP              0 ****  ****    0 ROOT


########## Name:		ligand
########## HA_RMSDs:		13.4854
########## HA_RMSDh:		13.4284
########## HA_RMSDm:		11.8088
########## Cluster Size:	2
##########    Grid Score:          -21.161919
##########      Grid_vdw:          -17.083679
##########       Grid_es:           -4.078239
##########    Int_energy:            1.292378

@<TRIPOS>MOLECULE
ligand
 24 24 1 0 0
SMALL
No Charge or Current Charge


@<TRIPOS>ATOM
      1 H1         10.7565   11.3291   22.5172 H       1  lig         0.1340
      2 H2          7.2072    9.1163   23.3668 H       1  lig         0.1340
      3 H3         11.1015    9.9463   20.5379 H       1  lig         0.1475
      4 H4          7.5765    7.6835   21.3971 H       1  lig         0.1475
      5 H5          9.4738   11.9801   24.2700 H       1  lig         0.0877
      6 H6          7.7684   11.6608   24.2469 H       1  lig         0.0877
      7 H7          8.5726    9.4047   25.5593 H       1  lig         0.0966
      8 H8          6.9679   11.0977   26.2980 H       1  lig         0.4431
      9 H9          7.9960   10.7534   27.5540 H       1  lig         0.4431
     10 H10         8.2116   12.1474   26.6682 H       1  lig         0.4431
     11 H11         9.5818    8.6857   19.0200 H       1  lig         0.4214
     12 C1         10.0562   10.5302   22.2869 C.ar    1  lig        -0.0999
     13 C2          8.0771    9.2881   22.7372 C.ar    1  lig        -0.0999
     14 C3         10.2442    9.7568   21.1746 C.ar    1  lig        -0.1787
     15 C4          8.2790    8.4749   21.6384 C.ar    1  lig        -0.1787
     16 C5          8.9736   10.2945   23.0776 C.ar    1  lig        -0.1394
     17 C6          9.4023    8.7237   20.8585 C.ar    1  lig         0.1292
     18 C7         10.2912   10.4849   26.1308 C.2     1  lig         0.9321
     19 C8          8.7440   11.1625   24.3001 C.3     1  lig        -0.0452
     20 C9          8.8585   10.4537   25.6501 C.3     1  lig        -0.0740
     21 N1          7.9606   11.1305   26.5851 N.4     1  lig        -0.8252
     22 O1         10.9590    9.5026   25.8150 O.co2   1  lig        -0.7573
     23 O2         10.7711   11.4227   26.8300 O.co2   1  lig        -0.7573
     24 O3          9.6328    8.0580   19.7978 O.3     1  lig        -0.4913
@<TRIPOS>BOND
     1     1    12    1
     2     2    13    1
     3     3    14    1
     4     4    15    1
     5     5    19    1
     6     6    19    1
     7     7    20    1
     8     8    21    1
     9     9    21    1
    10    10    21    1
    11    11    24    1
    12    12    14   ar
    13    12    16   ar
    14    13    15   ar
    15    13    16   ar
    16    14    17   ar
    17    15    17   ar
    18    16    19    1
    19    17    24    1
    20    18    20    1
    21    18    22    1
    22    18    23    1
    23    19    20    1
    24    20    21    1
@<TRIPOS>SUBSTRUCTURE
     1 lig         1 TEMP              0 ****  ****    0 ROOT


########## Name:		ligand
########## HA_RMSDs:		12.5939
########## HA_RMSDh:		12.5630
########## HA_RMSDm:		10.5517
########## Cluster Size:	1
##########    Grid Score:          -21.155281
##########      Grid_vdw:          -18.751448
##########       Grid_es:           -2.403832
##########    Int_energy:            1.708245

@<TRIPOS>MOLECULE
ligand
 24 24 1 0 0
SMALL
No Charge or Current Charge


@<TRIPOS>ATOM
      1 H1          9.2381   10.1401   23.3615 H       1  lig         0.1340
      2 H2         10.8165    8.6467   19.6881 H       1  lig         0.1340
      3 H3          7.1686    8.9259   22.9241 H       1  lig         0.1475
      4 H4          8.7109    7.4582   19.2159 H       1  lig         0.1475
      5 H5         12.0973   10.0864   20.9481 H       1  lig         0.0877
      6 H6         11.2730   11.3088   21.8629 H       1  lig         0.0877
      7 H7         11.5238    9.7319   23.9272 H       1  lig         0.0966
      8 H8         12.8512   11.7443   23.5091 H       1  lig         0.4431
      9 H9         13.8404   10.5768   24.1504 H       1  lig         0.4431
     10 H10        13.8805   10.8860   22.5142 H       1  lig         0.4431
     11 H11         6.1386    7.6690   21.7243 H       1  lig         0.4214
     12 C1          9.1334    9.5618   22.4471 C.ar    1  lig        -0.0999
     13 C2          9.9958    8.7115   20.3987 C.ar    1  lig        -0.0999
     14 C3          7.9760    8.8755   22.2019 C.ar    1  lig        -0.1787
     15 C4          8.8165    8.0468   20.1216 C.ar    1  lig        -0.1787
     16 C5         10.1473    9.4877   21.5419 C.ar    1  lig        -0.1394
     17 C6          7.7898    8.1544   21.0523 C.ar    1  lig         0.1292
     18 C7         12.7964    8.4216   22.8733 C.2     1  lig         0.9321
     19 C8         11.4434   10.2264   21.8168 C.3     1  lig        -0.0452
     20 C9         12.2004    9.7961   23.0737 C.3     1  lig        -0.0740
     21 N1         13.2320   10.7988   23.3363 N.4     1  lig        -0.8252
     22 O1         13.7435    8.3831   22.0909 O.co2   1  lig        -0.7573
     23 O2         12.3484    7.3797   23.4324 O.co2   1  lig        -0.7573
     24 O3          6.6912    7.5285   20.9017 O.3     1  lig        -0.4913
@<TRIPOS>BOND
     1     1    12    1
     2     2    13    1
     3     3    14    1
     4     4    15    1
     5     5    19    1
     6     6    19    1
     7     7    20    1
     8     8    21    1
     9     9    21    1
    10    10    21    1
    11    11    24    1
    12    12    14   ar
    13    12    16   ar
    14    13    15   ar
    15    13    16   ar
    16    14    17   ar
    17    15    17   ar
    18    16    19    1
    19    17    24    1
    20    18    20    1
    21    18    22    1
    22    18    23    1
    23    19    20    1
    24    20    21    1
@<TRIPOS>SUBSTRUCTURE
     1 lig         1 TEMP              0 ****  ****    0 ROOT


########## Name:		ligand
########## HA_RMSDs:		11.6612
########## HA_RMSDh:		11.5861
########## HA_RMSDm:		9.6578
########## Cluster Size:	2
##########    Grid Score:          -21.152020
##########      Grid_vdw:          -18.908432
##########       Grid_es:           -2.243588
##########    Int_energy:            2.028502

@<TRIPOS>MOLECULE
ligand
 24 24 1 0 0
SMALL
No Charge or Current Charge


@<TRIPOS>ATOM
      1 H1         11.9790    8.9828   19.9018 H       1  lig         0.1340
      2 H2         10.5446   10.8384   23.4676 H       1  lig         0.1340
      3 H3          9.7472    8.0766   19.5188 H       1  lig         0.1475
      4 H4          8.3007    9.8853   23.1132 H       1  lig         0.1475
      5 H5         13.3336   10.4849   21.0041 H       1  lig         0.0877
      6 H6         12.7266   11.5984   22.1884 H       1  lig         0.0877
      7 H7         13.0533    9.7330   23.9544 H       1  lig         0.0966
      8 H8         14.5777   11.6168   23.6165 H       1  lig         0.4431
      9 H9         15.4717   10.2630   23.9645 H       1  lig         0.4431
     10 H10        15.3571   10.7952   22.3903 H       1  lig         0.4431
     11 H11         7.0947    8.7938   21.6434 H       1  lig         0.4214
     12 C1         11.1842    9.1827   20.6160 C.ar    1  lig        -0.0999
     13 C2         10.3611   10.2144   22.5961 C.ar    1  lig        -0.0999
     14 C3          9.9304    8.6804   20.4008 C.ar    1  lig        -0.1787
     15 C4          9.1010    9.6790   22.4097 C.ar    1  lig        -0.1787
     16 C5         11.4067    9.9477   21.7197 C.ar    1  lig        -0.1394
     17 C6          8.9050    8.8854   21.2855 C.ar    1  lig         0.1292
     18 C7         14.0047    8.4474   22.5801 C.2     1  lig         0.9321
     19 C8         12.7881   10.5288   21.9541 C.3     1  lig        -0.0452
     20 C9         13.6256    9.8391   23.0316 C.3     1  lig        -0.0740
     21 N1         14.8057   10.6677   23.2755 N.4     1  lig        -0.8252
     22 O1         14.6879    8.4084   21.5591 O.co2   1  lig        -0.7573
     23 O2         13.6305    7.3959   23.1745 O.co2   1  lig        -0.7573
     24 O3          7.7610    8.3995   21.0091 O.3     1  lig        -0.4913
@<TRIPOS>BOND
     1     1    12    1
     2     2    13    1
     3     3    14    1
     4     4    15    1
     5     5    19    1
     6     6    19    1
     7     7    20    1
     8     8    21    1
     9     9    21    1
    10    10    21    1
    11    11    24    1
    12    12    14   ar
    13    12    16   ar
    14    13    15   ar
    15    13    16   ar
    16    14    17   ar
    17    15    17   ar
    18    16    19    1
    19    17    24    1
    20    18    20    1
    21    18    22    1
    22    18    23    1
    23    19    20    1
    24    20    21    1
@<TRIPOS>SUBSTRUCTURE
     1 lig         1 TEMP              0 ****  ****    0 ROOT


########## Name:		ligand
########## HA_RMSDs:		12.8400
########## HA_RMSDh:		12.8086
########## HA_RMSDm:		10.9456
########## Cluster Size:	1
##########    Grid Score:          -21.142420
##########      Grid_vdw:          -17.486887
##########       Grid_es:           -3.655533
##########    Int_energy:            2.178973

@<TRIPOS>MOLECULE
ligand
 24 24 1 0 0
SMALL
No Charge or Current Charge


@<TRIPOS>ATOM
      1 H1          9.5077   10.0927   24.2668 H       1  lig         0.1340
      2 H2         10.9440    7.9583   20.8614 H       1  lig         0.1340
      3 H3         11.4489   11.5621   24.1194 H       1  lig         0.1475
      4 H4         12.9324    9.4074   20.7371 H       1  lig         0.1475
      5 H5          9.1445    7.0875   22.1304 H       1  lig         0.0877
      6 H6          8.7158    7.6978   23.6971 H       1  lig         0.0877
      7 H7          7.7830    9.5729   21.6526 H       1  lig         0.0966
      8 H8          6.9505    9.3228   23.9398 H       1  lig         0.4431
      9 H9          5.7040    9.0325   22.8838 H       1  lig         0.4431
     10 H10         6.4777    7.7543   23.6201 H       1  lig         0.4431
     11 H11        14.1382   10.8680   22.5463 H       1  lig         0.4214
     12 C1         10.2533    9.9278   23.4931 C.ar    1  lig        -0.0999
     13 C2         11.0690    8.7569   21.5889 C.ar    1  lig        -0.0999
     14 C3         11.3400   10.7536   23.4048 C.ar    1  lig        -0.1787
     15 C4         12.1909    9.5601   21.5149 C.ar    1  lig        -0.1787
     16 C5         10.1164    8.9204   22.5880 C.ar    1  lig        -0.1394
     17 C6         12.3168   10.5689   22.4626 C.ar    1  lig         0.1292
     18 C7          7.0978    7.6967   20.9763 C.2     1  lig         0.9321
     19 C8          8.9023    8.0142   22.6637 C.3     1  lig        -0.0452
     20 C9          7.6077    8.5873   22.0861 C.3     1  lig        -0.0740
     21 N1          6.6422    8.6938   23.1793 N.4     1  lig        -0.8252
     22 O1          6.9589    6.5164   21.2896 O.co2   1  lig        -0.7573
     23 O2          6.8596    8.1100   19.8053 O.co2   1  lig        -0.7573
     24 O3         13.2909   11.3884   22.4321 O.3     1  lig        -0.4913
@<TRIPOS>BOND
     1     1    12    1
     2     2    13    1
     3     3    14    1
     4     4    15    1
     5     5    19    1
     6     6    19    1
     7     7    20    1
     8     8    21    1
     9     9    21    1
    10    10    21    1
    11    11    24    1
    12    12    14   ar
    13    12    16   ar
    14    13    15   ar
    15    13    16   ar
    16    14    17   ar
    17    15    17   ar
    18    16    19    1
    19    17    24    1
    20    18    20    1
    21    18    22    1
    22    18    23    1
    23    19    20    1
    24    20    21    1
@<TRIPOS>SUBSTRUCTURE
     1 lig         1 TEMP              0 ****  ****    0 ROOT


########## Name:		ligand
########## HA_RMSDs:		11.4809
########## HA_RMSDh:		11.4491
########## HA_RMSDm:		9.6097
########## Cluster Size:	1
##########    Grid Score:          -21.117008
##########      Grid_vdw:          -18.961376
##########       Grid_es:           -2.155633
##########    Int_energy:            3.163918

@<TRIPOS>MOLECULE
ligand
 24 24 1 0 0
SMALL
No Charge or Current Charge


@<TRIPOS>ATOM
      1 H1         10.7836   10.9089   23.5280 H       1  lig         0.1340
      2 H2         12.0869    9.0017   19.9391 H       1  lig         0.1340
      3 H3          8.5463   10.0152   23.1475 H       1  lig         0.1475
      4 H4          9.8179    8.1374   19.5225 H       1  lig         0.1475
      5 H5         13.4876   10.5844   21.0221 H       1  lig         0.0877
      6 H6         12.9312   11.6192   22.2989 H       1  lig         0.0877
      7 H7         13.2745    9.6474   23.9259 H       1  lig         0.0966
      8 H8         14.8542   11.4936   23.6388 H       1  lig         0.4431
      9 H9         15.7097   10.0915   23.8736 H       1  lig         0.4431
     10 H10        15.5577   10.7192   22.3382 H       1  lig         0.4431
     11 H11         7.2954    8.9695   21.9538 H       1  lig         0.4214
     12 C1         10.5841   10.3088   22.6438 C.ar    1  lig        -0.0999
     13 C2         11.2906    9.2308   20.6434 C.ar    1  lig        -0.0999
     14 C3          9.3318    9.8019   22.4308 C.ar    1  lig        -0.1787
     15 C4         10.0199    8.7471   20.3975 C.ar    1  lig        -0.1787
     16 C5         11.5687   10.0303   21.7461 C.ar    1  lig        -0.1394
     17 C6          9.0280    9.0619   21.3189 C.ar    1  lig         0.1292
     18 C7         14.1272    8.4127   22.4442 C.2     1  lig         0.9321
     19 C8         12.9664   10.5685   21.9864 C.3     1  lig        -0.0452
     20 C9         13.8164    9.7878   22.9895 C.3     1  lig        -0.0740
     21 N1         15.0344   10.5590   23.2352 N.4     1  lig        -0.8252
     22 O1         14.4653    8.3946   21.2627 O.co2   1  lig        -0.7573
     23 O2         14.0215    7.3528   23.1256 O.co2   1  lig        -0.7573
     24 O3          7.8438    8.6101   21.1976 O.3     1  lig        -0.4913
@<TRIPOS>BOND
     1     1    12    1
     2     2    13    1
     3     3    14    1
     4     4    15    1
     5     5    19    1
     6     6    19    1
     7     7    20    1
     8     8    21    1
     9     9    21    1
    10    10    21    1
    11    11    24    1
    12    12    14   ar
    13    12    16   ar
    14    13    15   ar
    15    13    16   ar
    16    14    17   ar
    17    15    17   ar
    18    16    19    1
    19    17    24    1
    20    18    20    1
    21    18    22    1
    22    18    23    1
    23    19    20    1
    24    20    21    1
@<TRIPOS>SUBSTRUCTURE
     1 lig         1 TEMP              0 ****  ****    0 ROOT


########## Name:		ligand
########## HA_RMSDs:		13.2747
########## HA_RMSDh:		13.2306
########## HA_RMSDm:		11.7852
########## Cluster Size:	3
##########    Grid Score:          -21.105078
##########      Grid_vdw:          -17.879269
##########       Grid_es:           -3.225809
##########    Int_energy:            3.175076

@<TRIPOS>MOLECULE
ligand
 24 24 1 0 0
SMALL
No Charge or Current Charge


@<TRIPOS>ATOM
      1 H1          8.2867    8.4187   24.1859 H       1  lig         0.1340
      2 H2         11.5559   10.4001   22.2880 H       1  lig         0.1340
      3 H3          7.3604    7.9175   21.9860 H       1  lig         0.1475
      4 H4         10.6004    9.9408   20.0643 H       1  lig         0.1475
      5 H5         10.5205    8.8352   25.3284 H       1  lig         0.0877
      6 H6         11.6249    9.9943   24.6595 H       1  lig         0.0877
      7 H7         10.5985   11.4367   26.1143 H       1  lig         0.0966
      8 H8          9.3314    9.5960   27.1108 H       1  lig         0.4431
      9 H9          8.3398   10.9206   26.9873 H       1  lig         0.4431
     10 H10         8.2021    9.6798   25.8846 H       1  lig         0.4431
     11 H11         8.7412    9.1886   19.0825 H       1  lig         0.4214
     12 C1          8.8000    8.7632   23.2917 C.ar    1  lig        -0.0999
     13 C2         10.6172    9.8564   22.2122 C.ar    1  lig        -0.0999
     14 C3          8.2857    8.4788   22.0567 C.ar    1  lig        -0.1787
     15 C4         10.0859    9.6095   20.9608 C.ar    1  lig        -0.1787
     16 C5          9.9664    9.4599   23.3748 C.ar    1  lig        -0.1394
     17 C6          8.8842    8.9135   20.9039 C.ar    1  lig         0.1292
     18 C7          9.2037   11.8451   24.5863 C.2     1  lig         0.9321
     19 C8         10.5566    9.7594   24.7397 C.3     1  lig        -0.0452
     20 C9          9.8690   10.8717   25.5321 C.3     1  lig        -0.0740
     21 N1          8.9004   10.2442   26.4302 N.4     1  lig        -0.8252
     22 O1          9.9511   12.7070   24.1290 O.co2   1  lig        -0.7573
     23 O2          7.9719   11.8097   24.3030 O.co2   1  lig        -0.7573
     24 O3          8.3550    8.5957   19.7902 O.3     1  lig        -0.4913
@<TRIPOS>BOND
     1     1    12    1
     2     2    13    1
     3     3    14    1
     4     4    15    1
     5     5    19    1
     6     6    19    1
     7     7    20    1
     8     8    21    1
     9     9    21    1
    10    10    21    1
    11    11    24    1
    12    12    14   ar
    13    12    16   ar
    14    13    15   ar
    15    13    16   ar
    16    14    17   ar
    17    15    17   ar
    18    16    19    1
    19    17    24    1
    20    18    20    1
    21    18    22    1
    22    18    23    1
    23    19    20    1
    24    20    21    1
@<TRIPOS>SUBSTRUCTURE
     1 lig         1 TEMP              0 ****  ****    0 ROOT


########## Name:		ligand
########## HA_RMSDs:		14.4581
########## HA_RMSDh:		14.4215
########## HA_RMSDm:		12.1097
########## Cluster Size:	1
##########    Grid Score:          -21.077921
##########      Grid_vdw:          -15.239588
##########       Grid_es:           -5.838333
##########    Int_energy:            4.857763

@<TRIPOS>MOLECULE
ligand
 24 24 1 0 0
SMALL
No Charge or Current Charge


@<TRIPOS>ATOM
      1 H1         25.3697    4.7555   11.8376 H       1  lig         0.1340
      2 H2         23.3706    7.9780   13.7959 H       1  lig         0.1340
      3 H3         27.5047    5.8227   12.3393 H       1  lig         0.1475
      4 H4         25.5208    9.0863   14.2621 H       1  lig         0.1475
      5 H5         22.1145    6.2933   12.8610 H       1  lig         0.0877
      6 H6         22.7223    5.5998   11.3913 H       1  lig         0.0877
      7 H7         23.3468    3.5201   12.5287 H       1  lig         0.0966
      8 H8         21.0000    3.8514   11.9207 H       1  lig         0.4431
      9 H9         21.0681    2.9561   13.3160 H       1  lig         0.4431
     10 H10        20.6979    4.5783   13.3925 H       1  lig         0.4431
     11 H11        28.4602    7.5918   12.8994 H       1  lig         0.4214
     12 C1         25.3884    5.7067   12.3635 C.ar    1  lig        -0.0999
     13 C2         24.2952    7.5097   13.4664 C.ar    1  lig        -0.0999
     14 C3         26.5845    6.3047   12.6509 C.ar    1  lig        -0.1787
     15 C4         25.4957    8.1424   13.7268 C.ar    1  lig        -0.1787
     16 C5         24.2367    6.3109   12.7651 C.ar    1  lig        -0.1394
     17 C6         26.6558    7.5145   13.2892 C.ar    1  lig         0.1292
     18 C7         23.1503    4.2268   14.5058 C.2     1  lig         0.9321
     19 C8         22.9067    5.6433   12.4715 C.3     1  lig        -0.0452
     20 C9         22.7222    4.2426   13.0562 C.3     1  lig        -0.0740
     21 N1         21.3135    3.8799   12.9055 N.4     1  lig        -0.8252
     22 O1         22.9744    5.2863   15.1034 O.co2   1  lig        -0.7573
     23 O2         23.6785    3.2234   15.0653 O.co2   1  lig        -0.7573
     24 O3         27.8061    8.0012   13.5368 O.3     1  lig        -0.4913
@<TRIPOS>BOND
     1     1    12    1
     2     2    13    1
     3     3    14    1
     4     4    15    1
     5     5    19    1
     6     6    19    1
     7     7    20    1
     8     8    21    1
     9     9    21    1
    10    10    21    1
    11    11    24    1
    12    12    14   ar
    13    12    16   ar
    14    13    15   ar
    15    13    16   ar
    16    14    17   ar
    17    15    17   ar
    18    16    19    1
    19    17    24    1
    20    18    20    1
    21    18    22    1
    22    18    23    1
    23    19    20    1
    24    20    21    1
@<TRIPOS>SUBSTRUCTURE
     1 lig         1 TEMP              0 ****  ****    0 ROOT


########## Name:		ligand
########## HA_RMSDs:		12.4478
########## HA_RMSDh:		12.3854
########## HA_RMSDm:		10.6767
########## Cluster Size:	2
##########    Grid Score:          -21.067886
##########      Grid_vdw:          -18.143494
##########       Grid_es:           -2.924392
##########    Int_energy:            3.391014

@<TRIPOS>MOLECULE
ligand
 24 24 1 0 0
SMALL
No Charge or Current Charge


@<TRIPOS>ATOM
      1 H1          8.2831    9.5919   23.9007 H       1  lig         0.1340
      2 H2         11.4346   11.1500   21.4809 H       1  lig         0.1340
      3 H3          7.6781    8.0863   22.0797 H       1  lig         0.1475
      4 H4         10.7976    9.6673   19.6195 H       1  lig         0.1475
      5 H5          9.8863   12.4048   23.6960 H       1  lig         0.0877
      6 H6          9.7626   11.1239   24.8599 H       1  lig         0.0877
      7 H7         12.2859   11.9977   23.3780 H       1  lig         0.0966
      8 H8         12.1727    9.5605   23.5636 H       1  lig         0.4431
      9 H9         13.3020   10.1254   24.6399 H       1  lig         0.4431
     10 H10        11.7925    9.6791   25.1844 H       1  lig         0.4431
     11 H11         9.2286    8.2401   18.9820 H       1  lig         0.4214
     12 C1          8.8378    9.6230   22.9663 C.ar    1  lig        -0.0999
     13 C2         10.5934   10.4718   21.6024 C.ar    1  lig        -0.0999
     14 C3          8.5041    8.7761   21.9455 C.ar    1  lig        -0.1787
     15 C4         10.2397    9.6488   20.5503 C.ar    1  lig        -0.1787
     16 C5          9.8814   10.4802   22.7963 C.ar    1  lig        -0.1394
     17 C6          9.1584    8.7969   20.7423 C.ar    1  lig         0.1292
     18 C7         12.0083   12.3751   25.4341 C.2     1  lig         0.9321
     19 C8         10.2736   11.4067   23.9316 C.3     1  lig        -0.0452
     20 C9         11.7727   11.5170   24.2122 C.3     1  lig        -0.0740
     21 N1         12.2914   10.1621   24.3960 N.4     1  lig        -0.8252
     22 O1         11.1122   13.1813   25.6744 O.co2   1  lig        -0.7573
     23 O2         13.0523   12.3048   26.1439 O.co2   1  lig        -0.7573
     24 O3          8.8016    7.9670   19.8450 O.3     1  lig        -0.4913
@<TRIPOS>BOND
     1     1    12    1
     2     2    13    1
     3     3    14    1
     4     4    15    1
     5     5    19    1
     6     6    19    1
     7     7    20    1
     8     8    21    1
     9     9    21    1
    10    10    21    1
    11    11    24    1
    12    12    14   ar
    13    12    16   ar
    14    13    15   ar
    15    13    16   ar
    16    14    17   ar
    17    15    17   ar
    18    16    19    1
    19    17    24    1
    20    18    20    1
    21    18    22    1
    22    18    23    1
    23    19    20    1
    24    20    21    1
@<TRIPOS>SUBSTRUCTURE
     1 lig         1 TEMP              0 ****  ****    0 ROOT


########## Name:		ligand
########## HA_RMSDs:		14.0435
########## HA_RMSDh:		14.0288
########## HA_RMSDm:		12.4747
########## Cluster Size:	1
##########    Grid Score:          -21.066368
##########      Grid_vdw:          -15.087460
##########       Grid_es:           -5.978909
##########    Int_energy:            3.099625

@<TRIPOS>MOLECULE
ligand
 24 24 1 0 0
SMALL
No Charge or Current Charge


@<TRIPOS>ATOM
      1 H1         25.7576    6.3783   13.8022 H       1  lig         0.1340
      2 H2         21.8645    4.8451   12.9602 H       1  lig         0.1340
      3 H3         25.1815    8.4105   12.5827 H       1  lig         0.1475
      4 H4         21.2936    6.8739   11.6846 H       1  lig         0.1475
      5 H5         23.5596    3.4108   13.8375 H       1  lig         0.0877
      6 H6         25.2220    3.8868   13.9800 H       1  lig         0.0877
      7 H7         23.9946    3.3075   16.1682 H       1  lig         0.0966
      8 H8         21.9654    4.5658   15.6336 H       1  lig         0.4431
      9 H9         22.6296    5.1892   17.0204 H       1  lig         0.4431
     10 H10        22.8362    5.9884   15.5736 H       1  lig         0.4431
     11 H11        22.0125    8.9304   11.2984 H       1  lig         0.4214
     12 C1         24.7790    6.4714   13.3380 C.ar    1  lig        -0.0999
     13 C2         22.6007    5.6396   12.8630 C.ar    1  lig        -0.0999
     14 C3         24.4514    7.6121   12.6582 C.ar    1  lig        -0.1787
     15 C4         22.2734    6.7707   12.1400 C.ar    1  lig        -0.1787
     16 C5         23.8558    5.4762   13.4379 C.ar    1  lig        -0.1394
     17 C6         23.2404    7.7637   12.0365 C.ar    1  lig         0.1292
     18 C7         25.2478    4.9955   16.3325 C.2     1  lig         0.9321
     19 C8         24.2019    4.2173   14.2101 C.3     1  lig        -0.0452
     20 C9         24.0466    4.3047   15.7287 C.3     1  lig        -0.0740
     21 N1         22.8089    5.0320   16.0078 N.4     1  lig        -0.8252
     22 O1         26.1778    4.2460   16.6223 O.co2   1  lig        -0.7573
     23 O2         25.2960    6.2387   16.5582 O.co2   1  lig        -0.7573
     24 O3         23.0014    8.8609   11.4361 O.3     1  lig        -0.4913
@<TRIPOS>BOND
     1     1    12    1
     2     2    13    1
     3     3    14    1
     4     4    15    1
     5     5    19    1
     6     6    19    1
     7     7    20    1
     8     8    21    1
     9     9    21    1
    10    10    21    1
    11    11    24    1
    12    12    14   ar
    13    12    16   ar
    14    13    15   ar
    15    13    16   ar
    16    14    17   ar
    17    15    17   ar
    18    16    19    1
    19    17    24    1
    20    18    20    1
    21    18    22    1
    22    18    23    1
    23    19    20    1
    24    20    21    1
@<TRIPOS>SUBSTRUCTURE
     1 lig         1 TEMP              0 ****  ****    0 ROOT


########## Name:		ligand
########## HA_RMSDs:		12.5087
########## HA_RMSDh:		12.4506
########## HA_RMSDm:		10.5571
########## Cluster Size:	3
##########    Grid Score:          -21.057884
##########      Grid_vdw:          -19.574427
##########       Grid_es:           -1.483457
##########    Int_energy:            2.277501

@<TRIPOS>MOLECULE
ligand
 24 24 1 0 0
SMALL
No Charge or Current Charge


@<TRIPOS>ATOM
      1 H1          8.5766    9.5941   23.6665 H       1  lig         0.1340
      2 H2         12.0429    9.3036   21.1935 H       1  lig         0.1340
      3 H3          7.2301    8.7500   21.8163 H       1  lig         0.1475
      4 H4         10.6816    8.4981   19.3048 H       1  lig         0.1475
      5 H5         10.6512    9.9091   24.6111 H       1  lig         0.0877
      6 H6         12.1167    9.3956   23.8371 H       1  lig         0.0877
      7 H7         11.6858   11.8203   22.5512 H       1  lig         0.0966
      8 H8         13.7305   10.9865   23.6051 H       1  lig         0.4431
      9 H9         13.4417   12.5279   24.1469 H       1  lig         0.4431
     10 H10        13.0745   11.2275   25.1208 H       1  lig         0.4431
     11 H11         8.6523    7.9157   18.7502 H       1  lig         0.4214
     12 C1          9.0490    9.3639   22.7149 C.ar    1  lig        -0.0999
     13 C2         10.9692    9.1868   21.3207 C.ar    1  lig        -0.0999
     14 C3          8.2972    8.8853   21.6774 C.ar    1  lig        -0.1787
     15 C4         10.2134    8.7407   20.2534 C.ar    1  lig        -0.1787
     16 C5         10.3893    9.5230   22.5385 C.ar    1  lig        -0.1394
     17 C6          8.8446    8.6055   20.4534 C.ar    1  lig         0.1292
     18 C7         10.7394   12.3812   24.3503 C.2     1  lig         0.9321
     19 C8         11.2347   10.0308   23.6910 C.3     1  lig        -0.0452
     20 C9         11.6913   11.4866   23.5899 C.3     1  lig        -0.0740
     21 N1         13.0497   11.5646   24.1259 N.4     1  lig        -0.8252
     22 O1          9.5578   12.2568   24.0357 O.co2   1  lig        -0.7573
     23 O2         11.1150   13.2189   25.2198 O.co2   1  lig        -0.7573
     24 O3          8.0839    8.1478   19.5406 O.3     1  lig        -0.4913
@<TRIPOS>BOND
     1     1    12    1
     2     2    13    1
     3     3    14    1
     4     4    15    1
     5     5    19    1
     6     6    19    1
     7     7    20    1
     8     8    21    1
     9     9    21    1
    10    10    21    1
    11    11    24    1
    12    12    14   ar
    13    12    16   ar
    14    13    15   ar
    15    13    16   ar
    16    14    17   ar
    17    15    17   ar
    18    16    19    1
    19    17    24    1
    20    18    20    1
    21    18    22    1
    22    18    23    1
    23    19    20    1
    24    20    21    1
@<TRIPOS>SUBSTRUCTURE
     1 lig         1 TEMP              0 ****  ****    0 ROOT


########## Name:		ligand
########## HA_RMSDs:		13.4734
########## HA_RMSDh:		13.4262
########## HA_RMSDm:		11.2400
########## Cluster Size:	1
##########    Grid Score:          -21.057373
##########      Grid_vdw:          -17.236406
##########       Grid_es:           -3.820967
##########    Int_energy:            5.871969

@<TRIPOS>MOLECULE
ligand
 24 24 1 0 0
SMALL
No Charge or Current Charge


@<TRIPOS>ATOM
      1 H1          8.6864    9.7084   23.2990 H       1  lig         0.1340
      2 H2         10.0349    7.1622   20.1504 H       1  lig         0.1340
      3 H3          6.4366    8.8111   23.0123 H       1  lig         0.1475
      4 H4          7.7552    6.2880   19.8219 H       1  lig         0.1475
      5 H5         11.3641    8.4974   22.7391 H       1  lig         0.0877
      6 H6         11.5252    8.8194   21.0418 H       1  lig         0.0877
      7 H7         10.1506   11.0809   21.7849 H       1  lig         0.0966
      8 H8         12.2703   10.9151   20.5740 H       1  lig         0.4431
      9 H9         12.4327   12.0412   21.7817 H       1  lig         0.4431
     10 H10        13.0701   10.5156   21.9835 H       1  lig         0.4431
     11 H11         5.1960    7.5794   22.0014 H       1  lig         0.4214
     12 C1          8.4948    8.9646   22.5298 C.ar    1  lig        -0.0999
     13 C2          9.2261    7.5311   20.7768 C.ar    1  lig        -0.0999
     14 C3          7.2353    8.4557   22.3705 C.ar    1  lig        -0.1787
     15 C4          7.9498    7.0395   20.5804 C.ar    1  lig        -0.1787
     16 C5          9.4957    8.5083   21.7280 C.ar    1  lig        -0.1394
     17 C6          6.9420    7.5359   21.3988 C.ar    1  lig         0.1292
     18 C7         10.9821   10.7834   23.6999 C.2     1  lig         0.9321
     19 C8         10.9005    9.0496   21.9133 C.3     1  lig        -0.0452
     20 C9         11.0030   10.5467   22.2071 C.3     1  lig        -0.0740
     21 N1         12.2409   11.0350   21.6005 N.4     1  lig        -0.8252
     22 O1         11.7374   10.0587   24.3440 O.co2   1  lig        -0.7573
     23 O2         10.2303   11.6317   24.2602 O.co2   1  lig        -0.7573
     24 O3          5.7495    7.0961   21.3220 O.3     1  lig        -0.4913
@<TRIPOS>BOND
     1     1    12    1
     2     2    13    1
     3     3    14    1
     4     4    15    1
     5     5    19    1
     6     6    19    1
     7     7    20    1
     8     8    21    1
     9     9    21    1
    10    10    21    1
    11    11    24    1
    12    12    14   ar
    13    12    16   ar
    14    13    15   ar
    15    13    16   ar
    16    14    17   ar
    17    15    17   ar
    18    16    19    1
    19    17    24    1
    20    18    20    1
    21    18    22    1
    22    18    23    1
    23    19    20    1
    24    20    21    1
@<TRIPOS>SUBSTRUCTURE
     1 lig         1 TEMP              0 ****  ****    0 ROOT


########## Name:		ligand
########## HA_RMSDs:		12.7530
########## HA_RMSDh:		12.6776
########## HA_RMSDm:		10.8579
########## Cluster Size:	6
##########    Grid Score:          -21.042030
##########      Grid_vdw:          -17.904333
##########       Grid_es:           -3.137698
##########    Int_energy:            3.386168

@<TRIPOS>MOLECULE
ligand
 24 24 1 0 0
SMALL
No Charge or Current Charge


@<TRIPOS>ATOM
      1 H1         11.1400   11.0437   21.6344 H       1  lig         0.1340
      2 H2          7.8127    9.5776   23.8694 H       1  lig         0.1340
      3 H3         10.5053    9.5741   19.7942 H       1  lig         0.1475
      4 H4          7.1951    8.0545   22.0342 H       1  lig         0.1475
      5 H5          9.5906   12.3235   23.7437 H       1  lig         0.0877
      6 H6          9.3333   11.0726   24.9183 H       1  lig         0.0877
      7 H7         11.9876   11.7035   23.5354 H       1  lig         0.0966
      8 H8         11.6830    9.3108   23.9462 H       1  lig         0.4431
      9 H9         12.7896    9.9017   25.0322 H       1  lig         0.4431
     10 H10        11.2230    9.6168   25.5212 H       1  lig         0.4431
     11 H11         9.1056    8.3147   19.0117 H       1  lig         0.4214
     12 C1         10.2778   10.3897   21.7373 C.ar    1  lig        -0.0999
     13 C2          8.4125    9.5635   22.9625 C.ar    1  lig        -0.0999
     14 C3          9.9164    9.5686   20.7049 C.ar    1  lig        -0.1787
     15 C4          8.0620    8.7010   21.9414 C.ar    1  lig        -0.1787
     16 C5          9.5299   10.3859   22.8746 C.ar    1  lig        -0.1394
     17 C6          8.8532    8.7101   20.7988 C.ar    1  lig         0.1292
     18 C7         11.6248   12.3031   25.5243 C.2     1  lig         0.9321
     19 C8          9.9092   11.3105   24.0158 C.3     1  lig        -0.0452
     20 C9         11.3944   11.3452   24.3780 C.3     1  lig        -0.0740
     21 N1         11.7997    9.9831   24.7230 N.4     1  lig        -0.8252
     22 O1         10.8027   13.2132   25.6045 O.co2   1  lig        -0.7573
     23 O2         12.5984   12.2091   26.3257 O.co2   1  lig        -0.7573
     24 O3          8.5679    7.9876   19.7898 O.3     1  lig        -0.4913
@<TRIPOS>BOND
     1     1    12    1
     2     2    13    1
     3     3    14    1
     4     4    15    1
     5     5    19    1
     6     6    19    1
     7     7    20    1
     8     8    21    1
     9     9    21    1
    10    10    21    1
    11    11    24    1
    12    12    14   ar
    13    12    16   ar
    14    13    15   ar
    15    13    16   ar
    16    14    17   ar
    17    15    17   ar
    18    16    19    1
    19    17    24    1
    20    18    20    1
    21    18    22    1
    22    18    23    1
    23    19    20    1
    24    20    21    1
@<TRIPOS>SUBSTRUCTURE
     1 lig         1 TEMP              0 ****  ****    0 ROOT


########## Name:		ligand
########## HA_RMSDs:		13.3079
########## HA_RMSDh:		13.2434
########## HA_RMSDm:		11.0248
########## Cluster Size:	1
##########    Grid Score:          -21.041401
##########      Grid_vdw:          -16.229681
##########       Grid_es:           -4.811719
##########    Int_energy:            1.387698

@<TRIPOS>MOLECULE
ligand
 24 24 1 0 0
SMALL
No Charge or Current Charge


@<TRIPOS>ATOM
      1 H1          8.6677   10.7863   23.2103 H       1  lig         0.1340
      2 H2          9.3738    7.0401   21.2912 H       1  lig         0.1340
      3 H3          6.8047    9.7757   24.4173 H       1  lig         0.1475
      4 H4          7.4625    6.0264   22.4695 H       1  lig         0.1475
      5 H5         10.6290    8.8792   20.6650 H       1  lig         0.0877
      6 H6          9.9707   10.4751   20.8398 H       1  lig         0.0877
      7 H7         11.2231    9.9868   23.3398 H       1  lig         0.0966
      8 H8         11.1482   12.0575   22.0385 H       1  lig         0.4431
      9 H9         12.7312   11.7052   22.3895 H       1  lig         0.4431
     10 H10        12.1309   11.3847   20.8691 H       1  lig         0.4431
     11 H11         6.1036    7.7602   25.1210 H       1  lig         0.4214
     12 C1          8.4104    9.7449   23.0341 C.ar    1  lig        -0.0999
     13 C2          8.7906    7.6448   21.9816 C.ar    1  lig        -0.0999
     14 C3          7.3697    9.1742   23.7137 C.ar    1  lig        -0.1787
     15 C4          7.7163    7.0690   22.6326 C.ar    1  lig        -0.1787
     16 C5          9.1223    8.9831   22.1591 C.ar    1  lig        -0.1394
     17 C6          6.9938    7.8735   23.5059 C.ar    1  lig         0.1292
     18 C7         12.6164    9.0097   22.0944 C.2     1  lig         0.9321
     19 C8         10.2930    9.6010   21.4186 C.3     1  lig        -0.0452
     20 C9         11.4901   10.0002   22.2821 C.3     1  lig        -0.0740
     21 N1         11.8892   11.3517   21.8911 N.4     1  lig        -0.8252
     22 O1         12.3978    7.8920   22.5564 O.co2   1  lig        -0.7573
     23 O2         13.7142    9.3002   21.5384 O.co2   1  lig        -0.7573
     24 O3          6.0248    7.4073   24.1877 O.3     1  lig        -0.4913
@<TRIPOS>BOND
     1     1    12    1
     2     2    13    1
     3     3    14    1
     4     4    15    1
     5     5    19    1
     6     6    19    1
     7     7    20    1
     8     8    21    1
     9     9    21    1
    10    10    21    1
    11    11    24    1
    12    12    14   ar
    13    12    16   ar
    14    13    15   ar
    15    13    16   ar
    16    14    17   ar
    17    15    17   ar
    18    16    19    1
    19    17    24    1
    20    18    20    1
    21    18    22    1
    22    18    23    1
    23    19    20    1
    24    20    21    1
@<TRIPOS>SUBSTRUCTURE
     1 lig         1 TEMP              0 ****  ****    0 ROOT


########## Name:		ligand
########## HA_RMSDs:		14.2617
########## HA_RMSDh:		14.2433
########## HA_RMSDm:		11.6326
########## Cluster Size:	1
##########    Grid Score:          -21.039581
##########      Grid_vdw:          -15.477173
##########       Grid_es:           -5.562409
##########    Int_energy:            2.331184

@<TRIPOS>MOLECULE
ligand
 24 24 1 0 0
SMALL
No Charge or Current Charge


@<TRIPOS>ATOM
      1 H1         10.1133   12.8859   27.6837 H       1  lig         0.1340
      2 H2          7.5870   10.7766   24.9663 H       1  lig         0.1340
      3 H3         11.6481   13.3443   25.8444 H       1  lig         0.1475
      4 H4          9.1574   11.1931   23.1144 H       1  lig         0.1475
      5 H5          8.1833   12.0167   28.4743 H       1  lig         0.0877
      6 H6          6.8293   11.9851   27.3897 H       1  lig         0.0877
      7 H7          7.0785    9.5260   27.0838 H       1  lig         0.0966
      8 H8          5.7836   10.4193   28.9578 H       1  lig         0.4431
      9 H9          6.5242    9.0158   29.4423 H       1  lig         0.4431
     10 H10         7.1568   10.4858   29.9043 H       1  lig         0.4431
     11 H11        11.0364   12.1852   22.6176 H       1  lig         0.4214
     12 C1          9.8953   12.5041   26.6895 C.ar    1  lig        -0.0999
     13 C2          8.4983   11.3391   25.1553 C.ar    1  lig        -0.0999
     14 C3         10.7515   12.7643   25.6551 C.ar    1  lig        -0.1787
     15 C4          9.3760   11.5617   24.1116 C.ar    1  lig        -0.1787
     16 C5          8.7666   11.7838   26.4448 C.ar    1  lig        -0.1394
     17 C6         10.5306   12.2830   24.3919 C.ar    1  lig         0.1292
     18 C7          8.8884    9.3440   28.1506 C.2     1  lig         0.9321
     19 C8          7.7993   11.5105   27.5809 C.3     1  lig        -0.0452
     20 C9          7.5658   10.0369   27.9156 C.3     1  lig        -0.0740
     21 N1          6.7090    9.9803   29.0993 N.4     1  lig        -0.8252
     22 O1          9.6075    9.8837   28.9887 O.co2   1  lig        -0.7573
     23 O2          9.2550    8.3106   27.5211 O.co2   1  lig        -0.7573
     24 O3         11.3643   12.5805   23.4766 O.3     1  lig        -0.4913
@<TRIPOS>BOND
     1     1    12    1
     2     2    13    1
     3     3    14    1
     4     4    15    1
     5     5    19    1
     6     6    19    1
     7     7    20    1
     8     8    21    1
     9     9    21    1
    10    10    21    1
    11    11    24    1
    12    12    14   ar
    13    12    16   ar
    14    13    15   ar
    15    13    16   ar
    16    14    17   ar
    17    15    17   ar
    18    16    19    1
    19    17    24    1
    20    18    20    1
    21    18    22    1
    22    18    23    1
    23    19    20    1
    24    20    21    1
@<TRIPOS>SUBSTRUCTURE
     1 lig         1 TEMP              0 ****  ****    0 ROOT


########## Name:		ligand
########## HA_RMSDs:		13.5750
########## HA_RMSDh:		13.5219
########## HA_RMSDm:		12.0592
########## Cluster Size:	1
##########    Grid Score:          -21.021078
##########      Grid_vdw:          -16.702404
##########       Grid_es:           -4.318674
##########    Int_energy:            2.318772

@<TRIPOS>MOLECULE
ligand
 24 24 1 0 0
SMALL
No Charge or Current Charge


@<TRIPOS>ATOM
      1 H1         10.5633   10.8813   22.7922 H       1  lig         0.1340
      2 H2          6.6936    9.1943   23.4208 H       1  lig         0.1340
      3 H3         10.7153    9.6572   20.6881 H       1  lig         0.1475
      4 H4          6.8615    7.9164   21.3213 H       1  lig         0.1475
      5 H5          8.6882   11.9286   24.3226 H       1  lig         0.0877
      6 H6          7.4988   10.8283   24.9433 H       1  lig         0.0877
      7 H7         10.0654    9.5727   25.3498 H       1  lig         0.0966
      8 H8          8.0324    9.3464   26.6924 H       1  lig         0.4431
      9 H9          9.2642    9.8684   27.6737 H       1  lig         0.4431
     10 H10         8.1199   10.9530   27.1364 H       1  lig         0.4431
     11 H11         9.1165    8.8068   19.0641 H       1  lig         0.4214
     12 C1          9.7484   10.2307   22.4849 C.ar    1  lig        -0.0999
     13 C2          7.5897    9.2841   22.8113 C.ar    1  lig        -0.0999
     14 C3          9.8287    9.5474   21.3029 C.ar    1  lig        -0.1787
     15 C4          7.6771    8.5582   21.6388 C.ar    1  lig        -0.1787
     16 C5          8.6295   10.0967   23.2484 C.ar    1  lig        -0.1394
     17 C6          8.8381    8.6975   20.8874 C.ar    1  lig         0.1292
     18 C7         10.4770   11.5578   25.9300 C.2     1  lig         0.9321
     19 C8          8.5215   10.8690   24.5494 C.3     1  lig        -0.0452
     20 C9          9.4892   10.4471   25.6556 C.3     1  lig        -0.0740
     21 N1          8.6959   10.1253   26.8412 N.4     1  lig        -0.8252
     22 O1          9.9666   12.6335   26.2348 O.co2   1  lig        -0.7573
     23 O2         11.7294   11.4175   25.8269 O.co2   1  lig        -0.7573
     24 O3          8.9766    8.1083   19.7672 O.3     1  lig        -0.4913
@<TRIPOS>BOND
     1     1    12    1
     2     2    13    1
     3     3    14    1
     4     4    15    1
     5     5    19    1
     6     6    19    1
     7     7    20    1
     8     8    21    1
     9     9    21    1
    10    10    21    1
    11    11    24    1
    12    12    14   ar
    13    12    16   ar
    14    13    15   ar
    15    13    16   ar
    16    14    17   ar
    17    15    17   ar
    18    16    19    1
    19    17    24    1
    20    18    20    1
    21    18    22    1
    22    18    23    1
    23    19    20    1
    24    20    21    1
@<TRIPOS>SUBSTRUCTURE
     1 lig         1 TEMP              0 ****  ****    0 ROOT


########## Name:		ligand
########## HA_RMSDs:		13.8327
########## HA_RMSDh:		13.7633
########## HA_RMSDm:		11.9212
########## Cluster Size:	1
##########    Grid Score:          -20.965034
##########      Grid_vdw:          -18.152079
##########       Grid_es:           -2.812957
##########    Int_energy:            2.865319

@<TRIPOS>MOLECULE
ligand
 24 24 1 0 0
SMALL
No Charge or Current Charge


@<TRIPOS>ATOM
      1 H1          7.2468    9.2460   23.4055 H       1  lig         0.1340
      2 H2         10.8733   11.2950   22.4749 H       1  lig         0.1340
      3 H3          7.5722    7.8491   21.4328 H       1  lig         0.1475
      4 H4         11.1822    9.9211   20.4535 H       1  lig         0.1475
      5 H5          9.3375   12.1915   24.1025 H       1  lig         0.0877
      6 H6          7.7827   11.4914   24.4236 H       1  lig         0.0877
      7 H7         10.3103   11.1274   25.8765 H       1  lig         0.0966
      8 H8         10.2945    9.0169   24.6388 H       1  lig         0.4431
      9 H9          9.9229    8.7071   26.2259 H       1  lig         0.4431
     10 H10         8.7100    8.7411   25.0847 H       1  lig         0.4431
     11 H11         9.5484    8.5869   18.9860 H       1  lig         0.4214
     12 C1          8.1093    9.4084   22.7641 C.ar    1  lig        -0.0999
     13 C2         10.1379   10.5321   22.2303 C.ar    1  lig        -0.0999
     14 C3          8.2972    8.6230   21.6603 C.ar    1  lig        -0.1787
     15 C4         10.3165    9.7712   21.0908 C.ar    1  lig        -0.1787
     16 C5          9.0270   10.3721   23.0506 C.ar    1  lig        -0.1394
     17 C6          9.3552    8.8074   20.8102 C.ar    1  lig         0.1292
     18 C7          8.3882   10.8921   26.7117 C.2     1  lig         0.9321
     19 C8          8.8394   11.2323   24.2858 C.3     1  lig        -0.0452
     20 C9          9.3738   10.6451   25.5926 C.3     1  lig        -0.0740
     21 N1          9.6000    9.2163   25.3782 N.4     1  lig        -0.8252
     22 O1          7.6082    9.9657   26.9211 O.co2   1  lig        -0.7573
     23 O2          8.3355   11.9717   27.3678 O.co2   1  lig        -0.7573
     24 O3          9.4724    8.0262   19.8115 O.3     1  lig        -0.4913
@<TRIPOS>BOND
     1     1    12    1
     2     2    13    1
     3     3    14    1
     4     4    15    1
     5     5    19    1
     6     6    19    1
     7     7    20    1
     8     8    21    1
     9     9    21    1
    10    10    21    1
    11    11    24    1
    12    12    14   ar
    13    12    16   ar
    14    13    15   ar
    15    13    16   ar
    16    14    17   ar
    17    15    17   ar
    18    16    19    1
    19    17    24    1
    20    18    20    1
    21    18    22    1
    22    18    23    1
    23    19    20    1
    24    20    21    1
@<TRIPOS>SUBSTRUCTURE
     1 lig         1 TEMP              0 ****  ****    0 ROOT


########## Name:		ligand
########## HA_RMSDs:		12.1038
########## HA_RMSDh:		12.1020
########## HA_RMSDm:		10.0001
########## Cluster Size:	1
##########    Grid Score:          -20.960751
##########      Grid_vdw:          -18.552916
##########       Grid_es:           -2.407835
##########    Int_energy:            4.612817

@<TRIPOS>MOLECULE
ligand
 24 24 1 0 0
SMALL
No Charge or Current Charge


@<TRIPOS>ATOM
      1 H1         11.5489   12.1674   23.7390 H       1  lig         0.1340
      2 H2          8.4840    9.4763   22.4820 H       1  lig         0.1340
      3 H3         10.1821   12.7656   25.6684 H       1  lig         0.1475
      4 H4          7.0771   10.1127   24.4015 H       1  lig         0.1475
      5 H5         10.2786    9.9990   21.0205 H       1  lig         0.0877
      6 H6         11.3876   11.3001   21.3167 H       1  lig         0.0877
      7 H7         12.6694    9.7255   22.9085 H       1  lig         0.0966
      8 H8         13.3334   10.2004   20.6019 H       1  lig         0.4431
      9 H9         13.6497    8.6051   20.9302 H       1  lig         0.4431
     10 H10        12.3042    9.0138   20.0375 H       1  lig         0.4431
     11 H11         6.9758   11.4982   26.1070 H       1  lig         0.4214
     12 C1         10.5691   11.7149   23.8688 C.ar    1  lig        -0.0999
     13 C2          8.8505   10.2151   23.1908 C.ar    1  lig        -0.0999
     14 C3          9.8029   12.0444   24.9528 C.ar    1  lig        -0.1787
     15 C4          8.0512   10.5703   24.2605 C.ar    1  lig        -0.1787
     16 C5         10.0925   10.8022   22.9785 C.ar    1  lig        -0.1394
     17 C6          8.5526   11.5187   25.1442 C.ar    1  lig         0.1292
     18 C7         11.4587    8.0643   22.4377 C.2     1  lig         0.9321
     19 C8         10.9454   10.4129   21.7860 C.3     1  lig        -0.0452
     20 C9         12.0574    9.4014   22.0655 C.3     1  lig        -0.0740
     21 N1         12.8845    9.3065   20.8631 N.4     1  lig        -0.8252
     22 O1         10.3740    7.8245   21.9118 O.co2   1  lig        -0.7573
     23 O2         12.0009    7.2597   23.2485 O.co2   1  lig        -0.7573
     24 O3          7.9052   11.8611   26.1859 O.3     1  lig        -0.4913
@<TRIPOS>BOND
     1     1    12    1
     2     2    13    1
     3     3    14    1
     4     4    15    1
     5     5    19    1
     6     6    19    1
     7     7    20    1
     8     8    21    1
     9     9    21    1
    10    10    21    1
    11    11    24    1
    12    12    14   ar
    13    12    16   ar
    14    13    15   ar
    15    13    16   ar
    16    14    17   ar
    17    15    17   ar
    18    16    19    1
    19    17    24    1
    20    18    20    1
    21    18    22    1
    22    18    23    1
    23    19    20    1
    24    20    21    1
@<TRIPOS>SUBSTRUCTURE
     1 lig         1 TEMP              0 ****  ****    0 ROOT


########## Name:		ligand
########## HA_RMSDs:		11.7976
########## HA_RMSDh:		11.7444
########## HA_RMSDm:		10.1012
########## Cluster Size:	1
##########    Grid Score:          -20.908386
##########      Grid_vdw:          -17.802006
##########       Grid_es:           -3.106381
##########    Int_energy:            8.043193

@<TRIPOS>MOLECULE
ligand
 24 24 1 0 0
SMALL
No Charge or Current Charge


@<TRIPOS>ATOM
      1 H1          7.9423    9.8849   24.2311 H       1  lig         0.1340
      2 H2         11.9090   11.3548   23.6655 H       1  lig         0.1340
      3 H3          7.7713   11.2309   26.2579 H       1  lig         0.1475
      4 H4         11.7612   12.6780   25.7383 H       1  lig         0.1475
      5 H5         10.3397    8.6787   22.8483 H       1  lig         0.0877
      6 H6          9.0670    9.5823   22.0903 H       1  lig         0.0877
      7 H7         11.1111   11.3014   21.5618 H       1  lig         0.0966
      8 H8          9.6201   10.1907   19.9711 H       1  lig         0.4431
      9 H9         11.1791   10.0665   19.4169 H       1  lig         0.4431
     10 H10        10.4570    8.7581   20.1525 H       1  lig         0.4431
     11 H11         8.6879   12.4457   27.5961 H       1  lig         0.4214
     12 C1          8.7880   10.4871   24.5533 C.ar    1  lig        -0.0999
     13 C2         10.9949   11.3252   24.2538 C.ar    1  lig        -0.0999
     14 C3          8.6929   11.2471   25.6865 C.ar    1  lig        -0.1787
     15 C4         10.9242   12.0657   25.4183 C.ar    1  lig        -0.1787
     16 C5          9.9436   10.5181   23.8346 C.ar    1  lig        -0.1394
     17 C6          9.7406   12.0015   26.1441 C.ar    1  lig         0.1292
     18 C7         12.4194    9.6644   21.7972 C.2     1  lig         0.9321
     19 C8         10.0497    9.6969   22.5637 C.3     1  lig        -0.0452
     20 C9         11.0390   10.2137   21.5186 C.3     1  lig        -0.0740
     21 N1         10.5503    9.8034   20.2028 N.4     1  lig        -0.8252
     22 O1         12.4333    8.5328   22.2765 O.co2   1  lig        -0.7573
     23 O2         13.4832   10.3159   21.5902 O.co2   1  lig        -0.7573
     24 O3          9.5715   12.6956   27.1981 O.3     1  lig        -0.4913
@<TRIPOS>BOND
     1     1    12    1
     2     2    13    1
     3     3    14    1
     4     4    15    1
     5     5    19    1
     6     6    19    1
     7     7    20    1
     8     8    21    1
     9     9    21    1
    10    10    21    1
    11    11    24    1
    12    12    14   ar
    13    12    16   ar
    14    13    15   ar
    15    13    16   ar
    16    14    17   ar
    17    15    17   ar
    18    16    19    1
    19    17    24    1
    20    18    20    1
    21    18    22    1
    22    18    23    1
    23    19    20    1
    24    20    21    1
@<TRIPOS>SUBSTRUCTURE
     1 lig         1 TEMP              0 ****  ****    0 ROOT


########## Name:		ligand
########## HA_RMSDs:		15.4547
########## HA_RMSDh:		15.3923
########## HA_RMSDm:		12.8955
########## Cluster Size:	1
##########    Grid Score:          -20.882360
##########      Grid_vdw:          -12.604075
##########       Grid_es:           -8.278285
##########    Int_energy:            2.133861

@<TRIPOS>MOLECULE
ligand
 24 24 1 0 0
SMALL
No Charge or Current Charge


@<TRIPOS>ATOM
      1 H1         25.7904    3.9838   11.6674 H       1  lig         0.1340
      2 H2         24.7792    5.9342   15.3264 H       1  lig         0.1340
      3 H3         23.4300    3.4700   11.3309 H       1  lig         0.1475
      4 H4         22.3999    5.3752   15.0178 H       1  lig         0.1475
      5 H5         27.0469    5.5125   14.8013 H       1  lig         0.0877
      6 H6         27.5329    4.4373   13.5291 H       1  lig         0.0877
      7 H7         27.2549    6.3479   11.8641 H       1  lig         0.0966
      8 H8         29.3963    5.7710   12.8978 H       1  lig         0.4431
      9 H9         29.3152    7.4190   12.7232 H       1  lig         0.4431
     10 H10        29.0444    6.7321   14.2163 H       1  lig         0.4431
     11 H11        21.0182    4.3026   13.6963 H       1  lig         0.4214
     12 C1         25.0592    4.2886   12.4117 C.ar    1  lig        -0.0999
     13 C2         24.4716    5.3773   14.4445 C.ar    1  lig        -0.0999
     14 C3         23.7342    4.0066   12.2229 C.ar    1  lig        -0.1787
     15 C4         23.1358    5.0628   14.2837 C.ar    1  lig        -0.1787
     16 C5         25.4347    4.9706   13.5282 C.ar    1  lig        -0.1394
     17 C6         22.7810    4.3490   13.1451 C.ar    1  lig         0.1292
     18 C7         26.6912    7.7572   13.3280 C.2     1  lig         0.9321
     19 C8         26.8991    5.3085   13.7344 C.3     1  lig        -0.0452
     20 C9         27.4267    6.4978   12.9310 C.3     1  lig        -0.0740
     21 N1         28.8620    6.6068   13.1891 N.4     1  lig        -0.8252
     22 O1         25.6629    7.9725   12.6901 O.co2   1  lig        -0.7573
     23 O2         27.1037    8.5531   14.2197 O.co2   1  lig        -0.7573
     24 O3         21.5654    4.0671   12.8921 O.3     1  lig        -0.4913
@<TRIPOS>BOND
     1     1    12    1
     2     2    13    1
     3     3    14    1
     4     4    15    1
     5     5    19    1
     6     6    19    1
     7     7    20    1
     8     8    21    1
     9     9    21    1
    10    10    21    1
    11    11    24    1
    12    12    14   ar
    13    12    16   ar
    14    13    15   ar
    15    13    16   ar
    16    14    17   ar
    17    15    17   ar
    18    16    19    1
    19    17    24    1
    20    18    20    1
    21    18    22    1
    22    18    23    1
    23    19    20    1
    24    20    21    1
@<TRIPOS>SUBSTRUCTURE
     1 lig         1 TEMP              0 ****  ****    0 ROOT


########## Name:		ligand
########## HA_RMSDs:		13.1474
########## HA_RMSDh:		13.0852
########## HA_RMSDm:		10.8841
########## Cluster Size:	2
##########    Grid Score:          -20.876059
##########      Grid_vdw:          -20.541725
##########       Grid_es:           -0.334333
##########    Int_energy:            1.467174

@<TRIPOS>MOLECULE
ligand
 24 24 1 0 0
SMALL
No Charge or Current Charge


@<TRIPOS>ATOM
      1 H1          9.4449    7.4706   19.7135 H       1  lig         0.1340
      2 H2          8.7168   10.0558   23.0305 H       1  lig         0.1340
      3 H3          7.2833    6.4127   20.1100 H       1  lig         0.1475
      4 H4          6.5548    8.9585   23.4673 H       1  lig         0.1475
      5 H5         10.7373    9.4824   20.0263 H       1  lig         0.0877
      6 H6         10.5186   10.5494   21.3769 H       1  lig         0.0877
      7 H7         11.8576    7.8009   21.5337 H       1  lig         0.0966
      8 H8         10.7171    8.4917   23.5852 H       1  lig         0.4431
      9 H9         12.3551    8.6175   23.8174 H       1  lig         0.4431
     10 H10        11.4554    9.9872   23.5189 H       1  lig         0.4431
     11 H11         5.1900    7.4402   22.6952 H       1  lig         0.4214
     12 C1          8.8247    7.8017   20.5427 C.ar    1  lig        -0.0999
     13 C2          8.3945    9.2374   22.3910 C.ar    1  lig        -0.0999
     14 C3          7.6097    7.2139   20.7639 C.ar    1  lig        -0.1787
     15 C4          7.1834    8.6240   22.6482 C.ar    1  lig        -0.1787
     16 C5          9.2256    8.8132   21.3606 C.ar    1  lig        -0.1394
     17 C6          6.8060    7.5810   21.8106 C.ar    1  lig         0.1292
     18 C7         13.0388    9.5390   21.3579 C.2     1  lig         0.9321
     19 C8         10.5610    9.4869   21.1083 C.3     1  lig        -0.0452
     20 C9         11.7670    8.8541   21.8034 C.3     1  lig        -0.0740
     21 N1         11.5641    8.9782   23.2463 N.4     1  lig        -0.8252
     22 O1         13.6144    8.9908   20.4205 O.co2   1  lig        -0.7573
     23 O2         13.5043   10.5743   21.9148 O.co2   1  lig        -0.7573
     24 O3          5.6812    6.9990   21.9430 O.3     1  lig        -0.4913
@<TRIPOS>BOND
     1     1    12    1
     2     2    13    1
     3     3    14    1
     4     4    15    1
     5     5    19    1
     6     6    19    1
     7     7    20    1
     8     8    21    1
     9     9    21    1
    10    10    21    1
    11    11    24    1
    12    12    14   ar
    13    12    16   ar
    14    13    15   ar
    15    13    16   ar
    16    14    17   ar
    17    15    17   ar
    18    16    19    1
    19    17    24    1
    20    18    20    1
    21    18    22    1
    22    18    23    1
    23    19    20    1
    24    20    21    1
@<TRIPOS>SUBSTRUCTURE
     1 lig         1 TEMP              0 ****  ****    0 ROOT


########## Name:		ligand
########## HA_RMSDs:		13.6744
########## HA_RMSDh:		13.5695
########## HA_RMSDm:		11.6475
########## Cluster Size:	2
##########    Grid Score:          -20.871080
##########      Grid_vdw:          -18.905563
##########       Grid_es:           -1.965517
##########    Int_energy:            2.259012

@<TRIPOS>MOLECULE
ligand
 24 24 1 0 0
SMALL
No Charge or Current Charge


@<TRIPOS>ATOM
      1 H1          9.8218    9.9047   20.4189 H       1  lig         0.1340
      2 H2          8.4498    8.6207   24.2509 H       1  lig         0.1340
      3 H3          8.2237    8.3847   19.3775 H       1  lig         0.1475
      4 H4          6.8684    7.0470   23.2061 H       1  lig         0.1475
      5 H5         11.1517    9.7399   23.2611 H       1  lig         0.0877
      6 H6         10.5365   11.0825   22.3503 H       1  lig         0.0877
      7 H7          9.5669   10.2050   25.1152 H       1  lig         0.0966
      8 H8          7.7551   11.0619   23.7118 H       1  lig         0.4431
      9 H9          8.1275   12.2029   24.8573 H       1  lig         0.4431
     10 H10         8.6755   12.3906   23.2956 H       1  lig         0.4431
     11 H11         6.1913    6.2854   21.2697 H       1  lig         0.4214
     12 C1          9.1855    9.2800   21.0406 C.ar    1  lig        -0.0999
     13 C2          8.4000    8.5549   23.1666 C.ar    1  lig        -0.0999
     14 C3          8.2846    8.4307   20.4593 C.ar    1  lig        -0.1787
     15 C4          7.5146    7.6644   22.5901 C.ar    1  lig        -0.1787
     16 C5          9.2515    9.3410   22.3988 C.ar    1  lig        -0.1394
     17 C6          7.4804    7.6072   21.2018 C.ar    1  lig         0.1292
     18 C7         10.8225   11.8828   24.8800 C.2     1  lig         0.9321
     19 C8         10.2310   10.2972   23.0523 C.3     1  lig        -0.0452
     20 C9          9.7537   10.9565   24.3467 C.3     1  lig        -0.0740
     21 N1          8.5156   11.6758   24.0489 N.4     1  lig        -0.8252
     22 O1         11.4216   11.4597   25.8662 O.co2   1  lig        -0.7573
     23 O2         11.0708   13.0189   24.3834 O.co2   1  lig        -0.7573
     24 O3          6.6549    6.8553   20.5900 O.3     1  lig        -0.4913
@<TRIPOS>BOND
     1     1    12    1
     2     2    13    1
     3     3    14    1
     4     4    15    1
     5     5    19    1
     6     6    19    1
     7     7    20    1
     8     8    21    1
     9     9    21    1
    10    10    21    1
    11    11    24    1
    12    12    14   ar
    13    12    16   ar
    14    13    15   ar
    15    13    16   ar
    16    14    17   ar
    17    15    17   ar
    18    16    19    1
    19    17    24    1
    20    18    20    1
    21    18    22    1
    22    18    23    1
    23    19    20    1
    24    20    21    1
@<TRIPOS>SUBSTRUCTURE
     1 lig         1 TEMP              0 ****  ****    0 ROOT


########## Name:		ligand
########## HA_RMSDs:		12.0777
########## HA_RMSDh:		12.0541
########## HA_RMSDm:		10.2139
########## Cluster Size:	2
##########    Grid Score:          -20.832741
##########      Grid_vdw:          -17.982491
##########       Grid_es:           -2.850250
##########    Int_energy:            1.752571

@<TRIPOS>MOLECULE
ligand
 24 24 1 0 0
SMALL
No Charge or Current Charge


@<TRIPOS>ATOM
      1 H1          9.6886   10.2820   23.9898 H       1  lig         0.1340
      2 H2         10.7859    9.5862   19.9244 H       1  lig         0.1340
      3 H3          7.6067    9.0738   23.5968 H       1  lig         0.1475
      4 H4          8.6630    8.4081   19.5072 H       1  lig         0.1475
      5 H5         12.1976   10.8144   21.2648 H       1  lig         0.0877
      6 H6         11.4743   11.8115   22.4867 H       1  lig         0.0877
      7 H7         12.0500    9.4112   23.8693 H       1  lig         0.0966
      8 H8         12.3064   11.7223   24.6308 H       1  lig         0.4431
      9 H9         13.7435   10.9241   24.8558 H       1  lig         0.4431
     10 H10        13.5666   11.9583   23.5621 H       1  lig         0.4431
     11 H11         6.1384    8.7193   21.4834 H       1  lig         0.4214
     12 C1          9.4736    9.8822   23.0021 C.ar    1  lig        -0.0999
     13 C2         10.0683    9.4762   20.7340 C.ar    1  lig        -0.0999
     14 C3          8.3093    9.1995   22.7803 C.ar    1  lig        -0.1787
     15 C4          8.8775    8.8197   20.4883 C.ar    1  lig        -0.1787
     16 C5         10.3564   10.0292   21.9765 C.ar    1  lig        -0.1394
     17 C6          7.9848    8.7001   21.5469 C.ar    1  lig         0.1292
     18 C7         13.7283    9.4263   22.5926 C.2     1  lig         0.9321
     19 C8         11.6608   10.7643   22.2193 C.3     1  lig        -0.0452
     20 C9         12.5858   10.1483   23.2695 C.3     1  lig        -0.0740
     21 N1         13.0648   11.2300   24.1293 N.4     1  lig        -0.8252
     22 O1         13.3848    8.5289   21.8262 O.co2   1  lig        -0.7573
     23 O2         14.9456    9.6897   22.8106 O.co2   1  lig        -0.7573
     24 O3          6.8903    8.0617   21.4213 O.3     1  lig        -0.4913
@<TRIPOS>BOND
     1     1    12    1
     2     2    13    1
     3     3    14    1
     4     4    15    1
     5     5    19    1
     6     6    19    1
     7     7    20    1
     8     8    21    1
     9     9    21    1
    10    10    21    1
    11    11    24    1
    12    12    14   ar
    13    12    16   ar
    14    13    15   ar
    15    13    16   ar
    16    14    17   ar
    17    15    17   ar
    18    16    19    1
    19    17    24    1
    20    18    20    1
    21    18    22    1
    22    18    23    1
    23    19    20    1
    24    20    21    1
@<TRIPOS>SUBSTRUCTURE
     1 lig         1 TEMP              0 ****  ****    0 ROOT


########## Name:		ligand
########## HA_RMSDs:		12.2543
########## HA_RMSDh:		12.1335
########## HA_RMSDm:		8.9907
########## Cluster Size:	3
##########    Grid Score:          -20.825302
##########      Grid_vdw:          -16.791258
##########       Grid_es:           -4.034045
##########    Int_energy:            4.149519

@<TRIPOS>MOLECULE
ligand
 24 24 1 0 0
SMALL
No Charge or Current Charge


@<TRIPOS>ATOM
      1 H1         13.8814   14.6324   26.7115 H       1  lig         0.1340
      2 H2         16.8219   15.3749   29.7144 H       1  lig         0.1340
      3 H3         15.6547   13.8934   25.2089 H       1  lig         0.1475
      4 H4         18.6230   14.6772   28.1853 H       1  lig         0.1475
      5 H5         13.2185   15.6037   28.6603 H       1  lig         0.0877
      6 H6         13.9281   14.7363   29.9850 H       1  lig         0.0877
      7 H7         15.4331   16.9194   30.2764 H       1  lig         0.0966
      8 H8         13.7317   16.0834   31.8235 H       1  lig         0.4431
      9 H9         13.5858   17.7323   31.7106 H       1  lig         0.4431
     10 H10        12.5210   16.7504   30.8879 H       1  lig         0.4431
     11 H11        17.6835   13.8364   24.8342 H       1  lig         0.4214
     12 C1         14.9159   14.6532   27.0445 C.ar    1  lig        -0.0999
     13 C2         16.5716   15.0529   28.7063 C.ar    1  lig        -0.0999
     14 C3         15.9118   14.2342   26.2059 C.ar    1  lig        -0.1787
     15 C4         17.5895   14.6698   27.8540 C.ar    1  lig        -0.1787
     16 C5         15.2429   15.0710   28.2980 C.ar    1  lig        -0.1394
     17 C6         17.2310   14.2661   26.5732 C.ar    1  lig         0.1292
     18 C7         14.0926   17.9985   29.0576 C.2     1  lig         0.9321
     19 C8         14.1427   15.5151   29.2432 C.3     1  lig        -0.0452
     20 C9         14.3878   16.8346   29.9758 C.3     1  lig        -0.0740
     21 N1         13.5307   16.8510   31.1607 N.4     1  lig        -0.8252
     22 O1         14.2016   17.7463   27.8597 O.co2   1  lig        -0.7573
     23 O2         13.7886   19.1536   29.4727 O.co2   1  lig        -0.7573
     24 O3         18.1005   13.8447   25.7439 O.3     1  lig        -0.4913
@<TRIPOS>BOND
     1     1    12    1
     2     2    13    1
     3     3    14    1
     4     4    15    1
     5     5    19    1
     6     6    19    1
     7     7    20    1
     8     8    21    1
     9     9    21    1
    10    10    21    1
    11    11    24    1
    12    12    14   ar
    13    12    16   ar
    14    13    15   ar
    15    13    16   ar
    16    14    17   ar
    17    15    17   ar
    18    16    19    1
    19    17    24    1
    20    18    20    1
    21    18    22    1
    22    18    23    1
    23    19    20    1
    24    20    21    1
@<TRIPOS>SUBSTRUCTURE
     1 lig         1 TEMP              0 ****  ****    0 ROOT


########## Name:		ligand
########## HA_RMSDs:		13.1604
########## HA_RMSDh:		13.1057
########## HA_RMSDm:		11.3109
########## Cluster Size:	1
##########    Grid Score:          -20.821957
##########      Grid_vdw:          -16.925945
##########       Grid_es:           -3.896011
##########    Int_energy:            3.406801

@<TRIPOS>MOLECULE
ligand
 24 24 1 0 0
SMALL
No Charge or Current Charge


@<TRIPOS>ATOM
      1 H1          9.0807    8.7376   20.1923 H       1  lig         0.1340
      2 H2          8.8379    9.9238   24.2849 H       1  lig         0.1340
      3 H3         11.2380    9.8641   20.0314 H       1  lig         0.1475
      4 H4         10.9927   11.1060   24.1157 H       1  lig         0.1475
      5 H5          6.8997    9.0659   23.1364 H       1  lig         0.0877
      6 H6          6.8881    8.7024   21.4399 H       1  lig         0.0877
      7 H7          6.5573    6.6226   22.6273 H       1  lig         0.0966
      8 H8          7.5124    7.3799   24.7489 H       1  lig         0.4431
      9 H9          8.2287    5.9450   24.3237 H       1  lig         0.4431
     10 H10         9.0442    7.3777   24.0860 H       1  lig         0.4431
     11 H11        12.6937   10.9211   20.9484 H       1  lig         0.4214
     12 C1          9.4851    9.2578   21.0570 C.ar    1  lig        -0.0999
     13 C2          9.3741    9.9237   23.3388 C.ar    1  lig        -0.0999
     14 C3         10.6971    9.8857   20.9711 C.ar    1  lig        -0.1787
     15 C4         10.5787   10.5952   23.2521 C.ar    1  lig        -0.1787
     16 C5          8.8145    9.2797   22.2413 C.ar    1  lig        -0.1394
     17 C6         11.2339   10.5742   22.0265 C.ar    1  lig         0.1292
     18 C7          8.4069    6.3637   21.6481 C.2     1  lig         0.9321
     19 C8          7.4807    8.5660   22.3526 C.3     1  lig        -0.0452
     20 C9          7.5503    7.0723   22.6722 C.3     1  lig        -0.0740
     21 N1          8.0951    6.9315   24.0220 N.4     1  lig        -0.8252
     22 O1          7.8340    6.1047   20.5921 O.co2   1  lig        -0.7573
     23 O2          9.6080    6.0280   21.8569 O.co2   1  lig        -0.7573
     24 O3         12.3745   11.1198   21.8759 O.3     1  lig        -0.4913
@<TRIPOS>BOND
     1     1    12    1
     2     2    13    1
     3     3    14    1
     4     4    15    1
     5     5    19    1
     6     6    19    1
     7     7    20    1
     8     8    21    1
     9     9    21    1
    10    10    21    1
    11    11    24    1
    12    12    14   ar
    13    12    16   ar
    14    13    15   ar
    15    13    16   ar
    16    14    17   ar
    17    15    17   ar
    18    16    19    1
    19    17    24    1
    20    18    20    1
    21    18    22    1
    22    18    23    1
    23    19    20    1
    24    20    21    1
@<TRIPOS>SUBSTRUCTURE
     1 lig         1 TEMP              0 ****  ****    0 ROOT


########## Name:		ligand
########## HA_RMSDs:		14.4278
########## HA_RMSDh:		14.3774
########## HA_RMSDm:		11.9692
########## Cluster Size:	2
##########    Grid Score:          -20.803452
##########      Grid_vdw:          -18.408602
##########       Grid_es:           -2.394849
##########    Int_energy:            0.949832

@<TRIPOS>MOLECULE
ligand
 24 24 1 0 0
SMALL
No Charge or Current Charge


@<TRIPOS>ATOM
      1 H1          8.9350    7.7927   19.4244 H       1  lig         0.1340
      2 H2          7.8778    9.1339   23.3358 H       1  lig         0.1340
      3 H3         10.9704    9.1300   19.5552 H       1  lig         0.1475
      4 H4          9.9069   10.5260   23.4545 H       1  lig         0.1475
      5 H5          6.2215    8.0876   21.8373 H       1  lig         0.0877
      6 H6          6.6395    7.4890   20.2633 H       1  lig         0.0877
      7 H7          8.0547    6.0248   22.4226 H       1  lig         0.0966
      8 H8          7.8942    5.3425   20.0783 H       1  lig         0.4431
      9 H9          7.1368    4.2041   21.0182 H       1  lig         0.4431
     10 H10         6.2282    5.3177   20.1762 H       1  lig         0.4431
     11 H11        11.8050   10.9322   20.5568 H       1  lig         0.4214
     12 C1          9.1326    8.3914   20.3098 C.ar    1  lig        -0.0999
     13 C2          8.5667    9.1464   22.4944 C.ar    1  lig        -0.0999
     14 C3         10.2759    9.1381   20.3881 C.ar    1  lig        -0.1787
     15 C4          9.6986    9.9355   22.5679 C.ar    1  lig        -0.1787
     16 C5          8.2688    8.3976   21.3617 C.ar    1  lig        -0.1394
     17 C6         10.5545    9.9268   21.4728 C.ar    1  lig         0.1292
     18 C7          5.9900    5.8743   22.8240 C.2     1  lig         0.9321
     19 C8          7.0099    7.5541   21.2935 C.3     1  lig        -0.0452
     20 C9          7.1256    6.1395   21.8623 C.3     1  lig        -0.0740
     21 N1          7.1094    5.2053   20.7373 N.4     1  lig        -0.8252
     22 O1          6.2466    6.1212   24.0003 O.co2   1  lig        -0.7573
     23 O2          4.8709    5.4055   22.4681 O.co2   1  lig        -0.7573
     24 O3         11.6467   10.5812   21.4806 O.3     1  lig        -0.4913
@<TRIPOS>BOND
     1     1    12    1
     2     2    13    1
     3     3    14    1
     4     4    15    1
     5     5    19    1
     6     6    19    1
     7     7    20    1
     8     8    21    1
     9     9    21    1
    10    10    21    1
    11    11    24    1
    12    12    14   ar
    13    12    16   ar
    14    13    15   ar
    15    13    16   ar
    16    14    17   ar
    17    15    17   ar
    18    16    19    1
    19    17    24    1
    20    18    20    1
    21    18    22    1
    22    18    23    1
    23    19    20    1
    24    20    21    1
@<TRIPOS>SUBSTRUCTURE
     1 lig         1 TEMP              0 ****  ****    0 ROOT


########## Name:		ligand
########## HA_RMSDs:		12.8115
########## HA_RMSDh:		12.7022
########## HA_RMSDm:		10.3986
########## Cluster Size:	1
##########    Grid Score:          -20.800629
##########      Grid_vdw:          -16.084276
##########       Grid_es:           -4.716353
##########    Int_energy:            2.979963

@<TRIPOS>MOLECULE
ligand
 24 24 1 0 0
SMALL
No Charge or Current Charge


@<TRIPOS>ATOM
      1 H1         10.0151    9.9081   19.9650 H       1  lig         0.1340
      2 H2         10.3608    8.0533   23.7933 H       1  lig         0.1340
      3 H3          8.5345    8.1013   19.2634 H       1  lig         0.1475
      4 H4          8.9061    6.1993   23.0750 H       1  lig         0.1475
      5 H5         10.8744   11.1256   21.8554 H       1  lig         0.0877
      6 H6         11.0677   10.4225   23.4298 H       1  lig         0.0877
      7 H7         13.2466   10.9397   22.2704 H       1  lig         0.0966
      8 H8         12.4973   10.3242   20.0239 H       1  lig         0.4431
      9 H9         13.8261    9.4094   20.4123 H       1  lig         0.4431
     10 H10        12.3052    8.7356   20.4989 H       1  lig         0.4431
     11 H11         7.2568    5.8709   21.4183 H       1  lig         0.4214
     12 C1          9.7854    9.0989   20.6536 C.ar    1  lig        -0.0999
     13 C2          9.9578    8.0512   22.7832 C.ar    1  lig        -0.0999
     14 C3          8.9511    8.0873   20.2646 C.ar    1  lig        -0.1787
     15 C4          9.1483    7.0036   22.3876 C.ar    1  lig        -0.1787
     16 C5         10.2982    9.0816   21.9144 C.ar    1  lig        -0.1394
     17 C6          8.6535    7.0348   21.0892 C.ar    1  lig         0.1292
     18 C7         13.2604    8.9727   23.0304 C.2     1  lig         0.9321
     19 C8         11.2054   10.2117   22.3624 C.3     1  lig        -0.0452
     20 C9         12.6972   10.0144   22.0910 C.3     1  lig        -0.0740
     21 N1         12.8456    9.6159   20.6918 N.4     1  lig        -0.8252
     22 O1         13.5798    7.9156   22.4909 O.co2   1  lig        -0.7573
     23 O2         13.3704    9.1465   24.2780 O.co2   1  lig        -0.7573
     24 O3          7.8560    6.1385   20.6626 O.3     1  lig        -0.4913
@<TRIPOS>BOND
     1     1    12    1
     2     2    13    1
     3     3    14    1
     4     4    15    1
     5     5    19    1
     6     6    19    1
     7     7    20    1
     8     8    21    1
     9     9    21    1
    10    10    21    1
    11    11    24    1
    12    12    14   ar
    13    12    16   ar
    14    13    15   ar
    15    13    16   ar
    16    14    17   ar
    17    15    17   ar
    18    16    19    1
    19    17    24    1
    20    18    20    1
    21    18    22    1
    22    18    23    1
    23    19    20    1
    24    20    21    1
@<TRIPOS>SUBSTRUCTURE
     1 lig         1 TEMP              0 ****  ****    0 ROOT


########## Name:		ligand
########## HA_RMSDs:		14.2393
########## HA_RMSDh:		14.1844
########## HA_RMSDm:		12.0025
########## Cluster Size:	1
##########    Grid Score:          -20.794998
##########      Grid_vdw:          -19.721294
##########       Grid_es:           -1.073704
##########    Int_energy:            1.925056

@<TRIPOS>MOLECULE
ligand
 24 24 1 0 0
SMALL
No Charge or Current Charge


@<TRIPOS>ATOM
      1 H1          7.1894    9.0118   24.0407 H       1  lig         0.1340
      2 H2         10.1813    7.8002   21.2486 H       1  lig         0.1340
      3 H3          5.5735    7.6189   22.8584 H       1  lig         0.1475
      4 H4          8.5428    6.4306   20.0203 H       1  lig         0.1475
      5 H5          9.5442    9.3227   24.5136 H       1  lig         0.0877
      6 H6         10.7954    8.9200   23.3809 H       1  lig         0.0877
      7 H7          9.2942   10.9927   22.1073 H       1  lig         0.0966
      8 H8         11.7020   10.5679   22.0143 H       1  lig         0.4431
      9 H9         11.4552   12.1319   22.5102 H       1  lig         0.4431
     10 H10        11.8571   10.9645   23.6282 H       1  lig         0.4431
     11 H11         5.1664    6.4340   21.2664 H       1  lig         0.4214
     12 C1          7.4972    8.4567   23.1582 C.ar    1  lig        -0.0999
     13 C2          9.1511    7.7620   21.5946 C.ar    1  lig        -0.0999
     14 C3          6.5945    7.6706   22.4965 C.ar    1  lig        -0.1787
     15 C4          8.2380    6.9963   20.8951 C.ar    1  lig        -0.1787
     16 C5          8.7797    8.5108   22.7054 C.ar    1  lig        -0.1394
     17 C6          6.9307    6.9735   21.3664 C.ar    1  lig         0.1292
     18 C7          9.2875   11.7142   24.0888 C.2     1  lig         0.9321
     19 C8          9.7935    9.3614   23.4468 C.3     1  lig        -0.0452
     20 C9          9.8748   10.8262   23.0159 C.3     1  lig        -0.0740
     21 N1         11.2815   11.1389   22.7667 N.4     1  lig        -0.8252
     22 O1          8.0916   11.5323   24.3063 O.co2   1  lig        -0.7573
     23 O2          9.9509   12.6003   24.7000 O.co2   1  lig        -0.7573
     24 O3          6.0401    6.2500   20.8142 O.3     1  lig        -0.4913
@<TRIPOS>BOND
     1     1    12    1
     2     2    13    1
     3     3    14    1
     4     4    15    1
     5     5    19    1
     6     6    19    1
     7     7    20    1
     8     8    21    1
     9     9    21    1
    10    10    21    1
    11    11    24    1
    12    12    14   ar
    13    12    16   ar
    14    13    15   ar
    15    13    16   ar
    16    14    17   ar
    17    15    17   ar
    18    16    19    1
    19    17    24    1
    20    18    20    1
    21    18    22    1
    22    18    23    1
    23    19    20    1
    24    20    21    1
@<TRIPOS>SUBSTRUCTURE
     1 lig         1 TEMP              0 ****  ****    0 ROOT


########## Name:		ligand
########## HA_RMSDs:		14.1333
########## HA_RMSDh:		14.0551
########## HA_RMSDm:		11.6014
########## Cluster Size:	1
##########    Grid Score:          -20.754742
##########      Grid_vdw:          -17.711365
##########       Grid_es:           -3.043376
##########    Int_energy:            2.319179

@<TRIPOS>MOLECULE
ligand
 24 24 1 0 0
SMALL
No Charge or Current Charge


@<TRIPOS>ATOM
      1 H1          9.5410    9.9303   20.5060 H       1  lig         0.1340
      2 H2          8.1011    8.4927   24.2578 H       1  lig         0.1340
      3 H3          8.0130    8.4022   19.3750 H       1  lig         0.1475
      4 H4          6.5913    6.9115   23.1221 H       1  lig         0.1475
      5 H5         10.4788    9.6672   23.8590 H       1  lig         0.0877
      6 H6         10.5902   10.6833   22.4570 H       1  lig         0.0877
      7 H7          8.1737   11.5388   23.5796 H       1  lig         0.0966
      8 H8         10.0251   12.8827   22.7119 H       1  lig         0.4431
      9 H9          9.6312   13.4326   24.2270 H       1  lig         0.4431
     10 H10        10.9716   12.4654   24.0218 H       1  lig         0.4431
     11 H11         5.8593    6.3238   21.1491 H       1  lig         0.4214
     12 C1          8.9051    9.2702   21.0906 C.ar    1  lig        -0.0999
     13 C2          8.0823    8.4592   23.1710 C.ar    1  lig        -0.0999
     14 C3          8.0434    8.4163   20.4590 C.ar    1  lig        -0.1787
     15 C4          7.2370    7.5643   22.5434 C.ar    1  lig        -0.1787
     16 C5          8.9328    9.2907   22.4513 C.ar    1  lig        -0.1394
     17 C6          7.2419    7.5495   21.1535 C.ar    1  lig         0.1292
     18 C7          9.1147   11.0403   25.3997 C.2     1  lig         0.9321
     19 C8          9.8683   10.2513   23.1605 C.3     1  lig        -0.0452
     20 C9          9.1955   11.3879   23.9309 C.3     1  lig        -0.0740
     21 N1          9.9789   12.6021   23.7060 N.4     1  lig        -0.8252
     22 O1         10.2029   10.9210   25.9584 O.co2   1  lig        -0.7573
     23 O2          8.0246   10.8517   26.0121 O.co2   1  lig        -0.7573
     24 O3          6.4536    6.7956   20.4965 O.3     1  lig        -0.4913
@<TRIPOS>BOND
     1     1    12    1
     2     2    13    1
     3     3    14    1
     4     4    15    1
     5     5    19    1
     6     6    19    1
     7     7    20    1
     8     8    21    1
     9     9    21    1
    10    10    21    1
    11    11    24    1
    12    12    14   ar
    13    12    16   ar
    14    13    15   ar
    15    13    16   ar
    16    14    17   ar
    17    15    17   ar
    18    16    19    1
    19    17    24    1
    20    18    20    1
    21    18    22    1
    22    18    23    1
    23    19    20    1
    24    20    21    1
@<TRIPOS>SUBSTRUCTURE
     1 lig         1 TEMP              0 ****  ****    0 ROOT


########## Name:		ligand
########## HA_RMSDs:		12.8031
########## HA_RMSDh:		12.7264
########## HA_RMSDm:		10.5889
########## Cluster Size:	1
##########    Grid Score:          -20.740957
##########      Grid_vdw:          -17.997572
##########       Grid_es:           -2.743386
##########    Int_energy:            1.428571

@<TRIPOS>MOLECULE
ligand
 24 24 1 0 0
SMALL
No Charge or Current Charge


@<TRIPOS>ATOM
      1 H1          8.2298    9.9722   23.1827 H       1  lig         0.1340
      2 H2         11.6692   12.3883   23.9232 H       1  lig         0.1340
      3 H3          9.3750    8.9937   21.2643 H       1  lig         0.1475
      4 H4         12.8125   11.4405   21.9576 H       1  lig         0.1475
      5 H5          9.7850   12.6865   25.2280 H       1  lig         0.0877
      6 H6          8.2207   12.3242   24.5706 H       1  lig         0.0877
      7 H7          8.4976    9.9529   25.6575 H       1  lig         0.0966
      8 H8          7.0293   11.7367   26.4631 H       1  lig         0.4431
      9 H9          7.7192   10.9828   27.7702 H       1  lig         0.4431
     10 H10         8.3054   12.4569   27.2624 H       1  lig         0.4431
     11 H11        11.9949   10.3044   19.8431 H       1  lig         0.4214
     12 C1          9.2305   10.3071   22.9216 C.ar    1  lig        -0.0999
     13 C2         11.1617   11.6391   23.3201 C.ar    1  lig        -0.0999
     14 C3          9.8771    9.7562   21.8497 C.ar    1  lig        -0.1787
     15 C4         11.8087   11.1184   22.2158 C.ar    1  lig        -0.1787
     16 C5          9.8687   11.2570   23.6586 C.ar    1  lig        -0.1394
     17 C6         11.1279   10.1644   21.4686 C.ar    1  lig         0.1292
     18 C7         10.1967   10.5792   26.7382 C.2     1  lig         0.9321
     19 C8          9.1685   11.8566   24.8633 C.3     1  lig        -0.0452
     20 C9          8.9031   10.8972   26.0239 C.3     1  lig        -0.0740
     21 N1          7.9366   11.5359   26.9164 N.4     1  lig        -0.8252
     22 O1         10.6635    9.4711   26.4835 O.co2   1  lig        -0.7573
     23 O2         10.7502   11.3650   27.5597 O.co2   1  lig        -0.7573
     24 O3         11.6725    9.5934   20.4693 O.3     1  lig        -0.4913
@<TRIPOS>BOND
     1     1    12    1
     2     2    13    1
     3     3    14    1
     4     4    15    1
     5     5    19    1
     6     6    19    1
     7     7    20    1
     8     8    21    1
     9     9    21    1
    10    10    21    1
    11    11    24    1
    12    12    14   ar
    13    12    16   ar
    14    13    15   ar
    15    13    16   ar
    16    14    17   ar
    17    15    17   ar
    18    16    19    1
    19    17    24    1
    20    18    20    1
    21    18    22    1
    22    18    23    1
    23    19    20    1
    24    20    21    1
@<TRIPOS>SUBSTRUCTURE
     1 lig         1 TEMP              0 ****  ****    0 ROOT


########## Name:		ligand
########## HA_RMSDs:		14.2273
########## HA_RMSDh:		14.1960
########## HA_RMSDm:		12.0553
########## Cluster Size:	1
##########    Grid Score:          -20.717339
##########      Grid_vdw:          -14.764257
##########       Grid_es:           -5.953082
##########    Int_energy:            3.116120

@<TRIPOS>MOLECULE
ligand
 24 24 1 0 0
SMALL
No Charge or Current Charge


@<TRIPOS>ATOM
      1 H1         26.1249    4.9025   12.9165 H       1  lig         0.1340
      2 H2         23.4231    8.1531   13.5076 H       1  lig         0.1340
      3 H3         27.9599    6.3471   13.6200 H       1  lig         0.1475
      4 H4         25.2784    9.6318   14.1712 H       1  lig         0.1475
      5 H5         22.5999    6.1476   12.7378 H       1  lig         0.0877
      6 H6         23.6278    5.2320   11.6815 H       1  lig         0.0877
      7 H7         23.9211    3.4782   13.2441 H       1  lig         0.0966
      8 H8         21.5961    3.6960   12.5134 H       1  lig         0.4431
      9 H9         21.6145    3.1162   14.0679 H       1  lig         0.4431
     10 H10        21.2677    4.7213   13.7889 H       1  lig         0.4431
     11 H11        28.5518    8.4653   13.7471 H       1  lig         0.4214
     12 C1         25.9268    5.9377   13.1825 C.ar    1  lig        -0.0999
     13 C2         24.4375    7.7617   13.5259 C.ar    1  lig        -0.0999
     14 C3         26.9531    6.7485   13.5826 C.ar    1  lig        -0.1787
     15 C4         25.4722    8.6008   13.8931 C.ar    1  lig        -0.1787
     16 C5         24.6636    6.4437   13.1463 C.ar    1  lig        -0.1394
     17 C6         26.7547    8.0653   13.9031 C.ar    1  lig         0.1292
     18 C7         23.6849    4.5897   15.0206 C.2     1  lig         0.9321
     19 C8         23.5158    5.5452   12.7266 C.3     1  lig        -0.0452
     20 C9         23.2945    4.3021   13.5889 C.3     1  lig        -0.0740
     21 N1         21.8847    3.9295   13.4784 N.4     1  lig        -0.8252
     22 O1         24.6499    3.9464   15.4275 O.co2   1  lig        -0.7573
     23 O2         23.0600    5.3995   15.7639 O.co2   1  lig        -0.7573
     24 O3         27.7567    8.7534   14.2824 O.3     1  lig        -0.4913
@<TRIPOS>BOND
     1     1    12    1
     2     2    13    1
     3     3    14    1
     4     4    15    1
     5     5    19    1
     6     6    19    1
     7     7    20    1
     8     8    21    1
     9     9    21    1
    10    10    21    1
    11    11    24    1
    12    12    14   ar
    13    12    16   ar
    14    13    15   ar
    15    13    16   ar
    16    14    17   ar
    17    15    17   ar
    18    16    19    1
    19    17    24    1
    20    18    20    1
    21    18    22    1
    22    18    23    1
    23    19    20    1
    24    20    21    1
@<TRIPOS>SUBSTRUCTURE
     1 lig         1 TEMP              0 ****  ****    0 ROOT


########## Name:		ligand
########## HA_RMSDs:		13.1198
########## HA_RMSDh:		13.0112
########## HA_RMSDm:		10.7222
########## Cluster Size:	1
##########    Grid Score:          -20.701229
##########      Grid_vdw:          -16.294552
##########       Grid_es:           -4.406678
##########    Int_energy:            2.933627

@<TRIPOS>MOLECULE
ligand
 24 24 1 0 0
SMALL
No Charge or Current Charge


@<TRIPOS>ATOM
      1 H1          9.4722   10.0354   20.0118 H       1  lig         0.1340
      2 H2          9.7573    7.9839   23.7435 H       1  lig         0.1340
      3 H3          7.9751    8.2866   19.2059 H       1  lig         0.1475
      4 H4          8.2856    6.1885   22.9188 H       1  lig         0.1475
      5 H5         10.3629   11.1339   21.9297 H       1  lig         0.0877
      6 H6         10.4622   10.3943   23.4962 H       1  lig         0.0877
      7 H7         12.7084   10.8638   22.4673 H       1  lig         0.0966
      8 H8         12.0525   10.3582   20.1649 H       1  lig         0.4431
      9 H9         13.3312    9.3861   20.5808 H       1  lig         0.4431
     10 H10        11.7877    8.7602   20.5674 H       1  lig         0.4431
     11 H11         7.2405    5.4787   21.1167 H       1  lig         0.4214
     12 C1          9.2255    9.1954   20.6562 C.ar    1  lig        -0.0999
     13 C2          9.3640    8.0386   22.7311 C.ar    1  lig        -0.0999
     14 C3          8.3819    8.2161   20.2088 C.ar    1  lig        -0.1787
     15 C4          8.5448    7.0234   22.2755 C.ar    1  lig        -0.1787
     16 C5          9.7259    9.1072   21.9189 C.ar    1  lig        -0.1394
     17 C6          8.0628    7.1272   20.9760 C.ar    1  lig         0.1292
     18 C7         12.6232    8.8702   23.1495 C.2     1  lig         0.9321
     19 C8         10.6435   10.2007   22.4320 C.3     1  lig        -0.0452
     20 C9         12.1400    9.9645   22.2255 C.3     1  lig        -0.0740
     21 N1         12.3450    9.6142   20.8205 N.4     1  lig        -0.8252
     22 O1         12.9262    9.2498   24.2785 O.co2   1  lig        -0.7573
     23 O2         12.7430    7.6622   22.7958 O.co2   1  lig        -0.7573
     24 O3          7.2579    6.2646   20.4972 O.3     1  lig        -0.4913
@<TRIPOS>BOND
     1     1    12    1
     2     2    13    1
     3     3    14    1
     4     4    15    1
     5     5    19    1
     6     6    19    1
     7     7    20    1
     8     8    21    1
     9     9    21    1
    10    10    21    1
    11    11    24    1
    12    12    14   ar
    13    12    16   ar
    14    13    15   ar
    15    13    16   ar
    16    14    17   ar
    17    15    17   ar
    18    16    19    1
    19    17    24    1
    20    18    20    1
    21    18    22    1
    22    18    23    1
    23    19    20    1
    24    20    21    1
@<TRIPOS>SUBSTRUCTURE
     1 lig         1 TEMP              0 ****  ****    0 ROOT


########## Name:		ligand
########## HA_RMSDs:		14.0913
########## HA_RMSDh:		14.0403
########## HA_RMSDm:		12.5251
########## Cluster Size:	1
##########    Grid Score:          -20.688515
##########      Grid_vdw:          -15.154804
##########       Grid_es:           -5.533710
##########    Int_energy:            3.406045

@<TRIPOS>MOLECULE
ligand
 24 24 1 0 0
SMALL
No Charge or Current Charge


@<TRIPOS>ATOM
      1 H1         25.3826    8.0767   12.4093 H       1  lig         0.1340
      2 H2         23.7339    6.0063   15.7576 H       1  lig         0.1340
      3 H3         27.2195    8.8304   13.8258 H       1  lig         0.1475
      4 H4         25.5596    6.8050   17.2061 H       1  lig         0.1475
      5 H5         22.3549    6.7832   13.6196 H       1  lig         0.0877
      6 H6         23.2688    7.0848   12.1758 H       1  lig         0.0877
      7 H7         22.8859    4.8483   11.8097 H       1  lig         0.0966
      8 H8         21.4784    4.6903   13.8049 H       1  lig         0.4431
      9 H9         22.4275    3.3325   13.7130 H       1  lig         0.4431
     10 H10        22.8296    4.5514   14.7747 H       1  lig         0.4431
     11 H11        27.4139    7.9551   17.1907 H       1  lig         0.4214
     12 C1         25.4060    7.7963   13.4593 C.ar    1  lig        -0.0999
     13 C2         24.5087    6.6435   15.3377 C.ar    1  lig        -0.0999
     14 C3         26.4378    8.2130   14.2546 C.ar    1  lig        -0.1787
     15 C4         25.5249    7.0918   16.1598 C.ar    1  lig        -0.1787
     16 C5         24.4323    7.0139   14.0001 C.ar    1  lig        -0.1394
     17 C6         26.4960    7.9053   15.5880 C.ar    1  lig         0.1292
     18 C7         24.7074    4.4977   12.8129 C.2     1  lig         0.9321
     19 C8         23.2966    6.5274   13.1200 C.3     1  lig        -0.0452
     20 C9         23.2931    5.0311   12.8053 C.3     1  lig        -0.0740
     21 N1         22.4607    4.3679   13.8082 N.4     1  lig        -0.8252
     22 O1         25.3750    4.8021   11.8269 O.co2   1  lig        -0.7573
     23 O2         25.1719    3.7686   13.7356 O.co2   1  lig        -0.7573
     24 O3         27.4963    8.3156   16.2607 O.3     1  lig        -0.4913
@<TRIPOS>BOND
     1     1    12    1
     2     2    13    1
     3     3    14    1
     4     4    15    1
     5     5    19    1
     6     6    19    1
     7     7    20    1
     8     8    21    1
     9     9    21    1
    10    10    21    1
    11    11    24    1
    12    12    14   ar
    13    12    16   ar
    14    13    15   ar
    15    13    16   ar
    16    14    17   ar
    17    15    17   ar
    18    16    19    1
    19    17    24    1
    20    18    20    1
    21    18    22    1
    22    18    23    1
    23    19    20    1
    24    20    21    1
@<TRIPOS>SUBSTRUCTURE
     1 lig         1 TEMP              0 ****  ****    0 ROOT


########## Name:		ligand
########## HA_RMSDs:		13.4441
########## HA_RMSDh:		13.3920
########## HA_RMSDm:		11.3604
########## Cluster Size:	1
##########    Grid Score:          -20.685141
##########      Grid_vdw:          -18.039953
##########       Grid_es:           -2.645188
##########    Int_energy:            1.807828

@<TRIPOS>MOLECULE
ligand
 24 24 1 0 0
SMALL
No Charge or Current Charge


@<TRIPOS>ATOM
      1 H1         10.5013   11.6906   22.9849 H       1  lig         0.1340
      2 H2          7.4448    8.7196   22.7683 H       1  lig         0.1340
      3 H3         11.5628   10.6892   21.0306 H       1  lig         0.1475
      4 H4          8.5387    7.6733   20.8247 H       1  lig         0.1475
      5 H5          8.3173   11.9718   24.1079 H       1  lig         0.0877
      6 H6          7.1687   10.6755   24.2129 H       1  lig         0.0877
      7 H7          9.7225    9.8942   25.4595 H       1  lig         0.0966
      8 H8          7.5419    8.8316   25.7802 H       1  lig         0.4431
      9 H9          8.0686    9.4194   27.2397 H       1  lig         0.4431
     10 H10         6.9114   10.2553   26.3813 H       1  lig         0.4431
     11 H11        10.0780    8.5865   19.0621 H       1  lig         0.4214
     12 C1         10.0647   10.8075   22.5253 C.ar    1  lig        -0.0999
     13 C2          8.3672    9.1460   22.3811 C.ar    1  lig        -0.0999
     14 C3         10.6549   10.2472   21.4260 C.ar    1  lig        -0.1787
     15 C4          8.9768    8.5480   21.2947 C.ar    1  lig        -0.1787
     16 C5          8.9201   10.2545   23.0120 C.ar    1  lig        -0.1394
     17 C6         10.1547    9.1203   20.8292 C.ar    1  lig         0.1292
     18 C7          9.1944   11.7266   26.3595 C.2     1  lig         0.9321
     19 C8          8.2456   10.8833   24.2164 C.3     1  lig        -0.0452
     20 C9          8.8156   10.4887   25.5793 C.3     1  lig        -0.0740
     21 N1          7.7984    9.7020   26.2757 N.4     1  lig        -0.8252
     22 O1         10.0711   12.4124   25.8382 O.co2   1  lig        -0.7573
     23 O2          8.6838   12.0299   27.4758 O.co2   1  lig        -0.7573
     24 O3         10.7500    8.6659   19.7995 O.3     1  lig        -0.4913
@<TRIPOS>BOND
     1     1    12    1
     2     2    13    1
     3     3    14    1
     4     4    15    1
     5     5    19    1
     6     6    19    1
     7     7    20    1
     8     8    21    1
     9     9    21    1
    10    10    21    1
    11    11    24    1
    12    12    14   ar
    13    12    16   ar
    14    13    15   ar
    15    13    16   ar
    16    14    17   ar
    17    15    17   ar
    18    16    19    1
    19    17    24    1
    20    18    20    1
    21    18    22    1
    22    18    23    1
    23    19    20    1
    24    20    21    1
@<TRIPOS>SUBSTRUCTURE
     1 lig         1 TEMP              0 ****  ****    0 ROOT


########## Name:		ligand
########## HA_RMSDs:		13.8001
########## HA_RMSDh:		13.7730
########## HA_RMSDm:		12.0432
########## Cluster Size:	1
##########    Grid Score:          -20.637587
##########      Grid_vdw:          -18.019550
##########       Grid_es:           -2.618037
##########    Int_energy:            3.862101

@<TRIPOS>MOLECULE
ligand
 24 24 1 0 0
SMALL
No Charge or Current Charge


@<TRIPOS>ATOM
      1 H1          9.6363    8.6099   19.8213 H       1  lig         0.1340
      2 H2          6.8175    8.8719   23.0153 H       1  lig         0.1340
      3 H3         11.0954   10.1447   21.0312 H       1  lig         0.1475
      4 H4          8.2639   10.4613   24.2197 H       1  lig         0.1475
      5 H5          6.1878    8.0235   20.7442 H       1  lig         0.0877
      6 H6          7.3788    7.7659   19.5090 H       1  lig         0.0877
      7 H7          7.5078    5.5936   20.1376 H       1  lig         0.0966
      8 H8          5.2578    5.9366   21.0357 H       1  lig         0.4431
      9 H9          6.0695    4.8769   22.0212 H       1  lig         0.4431
     10 H10         5.8928    6.4668   22.4853 H       1  lig         0.4431
     11 H11        10.8219   11.9421   22.6174 H       1  lig         0.4214
     12 C1          9.3210    9.0128   20.7804 C.ar    1  lig        -0.0999
     13 C2          7.7672    9.1681   22.5760 C.ar    1  lig        -0.0999
     14 C3         10.1397    9.8694   21.4636 C.ar    1  lig        -0.1787
     15 C4          8.5684   10.0652   23.2562 C.ar    1  lig        -0.1787
     16 C5          8.1267    8.6631   21.3317 C.ar    1  lig        -0.1394
     17 C6          9.7738   10.4212   22.6627 C.ar    1  lig         0.1292
     18 C7          8.5183    6.0436   21.9330 C.2     1  lig         0.9321
     19 C8          7.2227    7.6952   20.5922 C.3     1  lig        -0.0452
     20 C9          7.3369    6.2283   21.0084 C.3     1  lig        -0.0740
     21 N1          6.0810    5.8506   21.6553 N.4     1  lig        -0.8252
     22 O1          9.5722    5.7607   21.3673 O.co2   1  lig        -0.7573
     23 O2          8.4392    6.1367   23.1915 O.co2   1  lig        -0.7573
     24 O3         10.5959   11.1980   23.2474 O.3     1  lig        -0.4913
@<TRIPOS>BOND
     1     1    12    1
     2     2    13    1
     3     3    14    1
     4     4    15    1
     5     5    19    1
     6     6    19    1
     7     7    20    1
     8     8    21    1
     9     9    21    1
    10    10    21    1
    11    11    24    1
    12    12    14   ar
    13    12    16   ar
    14    13    15   ar
    15    13    16   ar
    16    14    17   ar
    17    15    17   ar
    18    16    19    1
    19    17    24    1
    20    18    20    1
    21    18    22    1
    22    18    23    1
    23    19    20    1
    24    20    21    1
@<TRIPOS>SUBSTRUCTURE
     1 lig         1 TEMP              0 ****  ****    0 ROOT


########## Name:		ligand
########## HA_RMSDs:		14.3772
########## HA_RMSDh:		14.3709
########## HA_RMSDm:		12.0293
########## Cluster Size:	4
##########    Grid Score:          -20.619682
##########      Grid_vdw:          -18.524170
##########       Grid_es:           -2.095512
##########    Int_energy:            1.162763

@<TRIPOS>MOLECULE
ligand
 24 24 1 0 0
SMALL
No Charge or Current Charge


@<TRIPOS>ATOM
      1 H1          7.8437    9.1958   23.0402 H       1  lig         0.1340
      2 H2          9.2006    7.5182   19.3577 H       1  lig         0.1340
      3 H3          9.8828   10.5302   23.1418 H       1  lig         0.1475
      4 H4         11.2849    8.8258   19.4794 H       1  lig         0.1475
      5 H5          6.3034    8.0772   21.4558 H       1  lig         0.0877
      6 H6          6.8913    7.1881   20.0867 H       1  lig         0.0877
      7 H7          7.9752    6.1166   22.6262 H       1  lig         0.0966
      8 H8          8.0216    5.0110   20.4440 H       1  lig         0.4431
      9 H9          7.1145    4.0937   21.4874 H       1  lig         0.4431
     10 H10         6.3552    5.0567   20.3602 H       1  lig         0.4431
     11 H11        11.9205   10.9047   20.5719 H       1  lig         0.4214
     12 C1          8.5919    9.1006   22.2573 C.ar    1  lig        -0.0999
     13 C2          9.3647    8.1839   20.2018 C.ar    1  lig        -0.0999
     14 C3          9.7337    9.8517   22.3090 C.ar    1  lig        -0.1787
     15 C4         10.5399    8.9081   20.2644 C.ar    1  lig        -0.1787
     16 C5          8.4053    8.2574   21.2052 C.ar    1  lig        -0.1394
     17 C6         10.7147    9.7469   21.3588 C.ar    1  lig         0.1292
     18 C7          5.8751    6.1083   22.8180 C.2     1  lig         0.9321
     19 C8          7.1312    7.4380   21.1273 C.3     1  lig        -0.0452
     20 C9          7.1155    6.1526   21.9554 C.3     1  lig        -0.0740
     21 N1          7.1673    5.0246   21.0262 N.4     1  lig        -0.8252
     22 O1          5.9272    6.8091   23.8264 O.co2   1  lig        -0.7573
     23 O2          4.8692    5.3887   22.5553 O.co2   1  lig        -0.7573
     24 O3         11.7426   10.4907   21.4656 O.3     1  lig        -0.4913
@<TRIPOS>BOND
     1     1    12    1
     2     2    13    1
     3     3    14    1
     4     4    15    1
     5     5    19    1
     6     6    19    1
     7     7    20    1
     8     8    21    1
     9     9    21    1
    10    10    21    1
    11    11    24    1
    12    12    14   ar
    13    12    16   ar
    14    13    15   ar
    15    13    16   ar
    16    14    17   ar
    17    15    17   ar
    18    16    19    1
    19    17    24    1
    20    18    20    1
    21    18    22    1
    22    18    23    1
    23    19    20    1
    24    20    21    1
@<TRIPOS>SUBSTRUCTURE
     1 lig         1 TEMP              0 ****  ****    0 ROOT


########## Name:		ligand
########## HA_RMSDs:		14.6049
########## HA_RMSDh:		14.5524
########## HA_RMSDm:		11.9148
########## Cluster Size:	1
##########    Grid Score:          -20.606363
##########      Grid_vdw:          -17.963270
##########       Grid_es:           -2.643094
##########    Int_energy:            2.939637

@<TRIPOS>MOLECULE
ligand
 24 24 1 0 0
SMALL
No Charge or Current Charge


@<TRIPOS>ATOM
      1 H1         24.4756    8.2429   13.9397 H       1  lig         0.1340
      2 H2         26.6951    4.8476   12.6124 H       1  lig         0.1340
      3 H3         22.4337    6.9159   13.8037 H       1  lig         0.1475
      4 H4         24.6306    3.5165   12.4249 H       1  lig         0.1475
      5 H5         27.7530    6.9398   12.7701 H       1  lig         0.0877
      6 H6         26.8631    8.4256   12.8758 H       1  lig         0.0877
      7 H7         28.5972    7.4823   14.8127 H       1  lig         0.0966
      8 H8         26.9808    5.7513   15.4272 H       1  lig         0.4431
      9 H9         27.0884    6.8457   16.6697 H       1  lig         0.4431
     10 H10        25.7897    6.9031   15.6282 H       1  lig         0.4431
     11 H11        21.5656    5.1643   12.7768 H       1  lig         0.4214
     12 C1         24.5227    7.2112   13.6005 C.ar    1  lig        -0.0999
     13 C2         25.7410    5.3035   12.8663 C.ar    1  lig        -0.0999
     14 C3         23.3799    6.4631   13.5285 C.ar    1  lig        -0.1787
     15 C4         24.5879    4.5507   12.7515 C.ar    1  lig        -0.1787
     16 C5         25.7090    6.6354   13.2630 C.ar    1  lig        -0.1394
     17 C6         23.3876    5.1678   13.0834 C.ar    1  lig         0.1292
     18 C7         27.3110    9.1102   15.1905 C.2     1  lig         0.9321
     19 C8         26.9846    7.4502   13.3624 C.3     1  lig        -0.0452
     20 C9         27.5235    7.6723   14.7760 C.3     1  lig        -0.0740
     21 N1         26.8277    6.7451   15.6677 N.4     1  lig        -0.8252
     22 O1         28.1086    9.9074   14.7017 O.co2   1  lig        -0.7573
     23 O2         26.4108    9.4763   15.9995 O.co2   1  lig        -0.7573
     24 O3         22.2860    4.5296   13.0594 O.3     1  lig        -0.4913
@<TRIPOS>BOND
     1     1    12    1
     2     2    13    1
     3     3    14    1
     4     4    15    1
     5     5    19    1
     6     6    19    1
     7     7    20    1
     8     8    21    1
     9     9    21    1
    10    10    21    1
    11    11    24    1
    12    12    14   ar
    13    12    16   ar
    14    13    15   ar
    15    13    16   ar
    16    14    17   ar
    17    15    17   ar
    18    16    19    1
    19    17    24    1
    20    18    20    1
    21    18    22    1
    22    18    23    1
    23    19    20    1
    24    20    21    1
@<TRIPOS>SUBSTRUCTURE
     1 lig         1 TEMP              0 ****  ****    0 ROOT


########## Name:		ligand
########## HA_RMSDs:		13.8869
########## HA_RMSDh:		13.8258
########## HA_RMSDm:		11.8755
########## Cluster Size:	1
##########    Grid Score:          -20.587816
##########      Grid_vdw:          -18.106718
##########       Grid_es:           -2.481099
##########    Int_energy:            2.973048

@<TRIPOS>MOLECULE
ligand
 24 24 1 0 0
SMALL
No Charge or Current Charge


@<TRIPOS>ATOM
      1 H1         23.5209    5.1065   15.0699 H       1  lig         0.1340
      2 H2         25.6334    8.4591   13.4845 H       1  lig         0.1340
      3 H3         21.9236    5.2916   13.2359 H       1  lig         0.1475
      4 H4         23.9957    8.6827   11.6577 H       1  lig         0.1475
      5 H5         25.2313    7.1316   16.4219 H       1  lig         0.0877
      6 H6         25.8142    5.6140   15.8156 H       1  lig         0.0877
      7 H7         27.1303    7.5978   14.2293 H       1  lig         0.0966
      8 H8         27.9870    5.4398   15.0014 H       1  lig         0.4431
      9 H9         29.0329    6.6331   15.4861 H       1  lig         0.4431
     10 H10        27.9676    5.9726   16.5830 H       1  lig         0.4431
     11 H11        21.0977    7.3211   11.8047 H       1  lig         0.4214
     12 C1         23.6328    5.8979   14.3331 C.ar    1  lig        -0.0999
     13 C2         24.7990    7.7640   13.4274 C.ar    1  lig        -0.0999
     14 C3         22.7417    6.0007   13.3006 C.ar    1  lig        -0.1787
     15 C4         23.8821    7.9018   12.4029 C.ar    1  lig        -0.1787
     16 C5         24.6631    6.7846   14.4045 C.ar    1  lig        -0.1394
     17 C6         22.8285    6.9961   12.3637 C.ar    1  lig         0.1292
     18 C7         27.2043    8.5371   16.1158 C.2     1  lig         0.9321
     19 C8         25.6697    6.6637   15.5327 C.3     1  lig        -0.0452
     20 C9         27.0387    7.2934   15.2729 C.3     1  lig        -0.0740
     21 N1         28.0559    6.2902   15.5854 N.4     1  lig        -0.8252
     22 O1         27.8924    8.3854   17.1229 O.co2   1  lig        -0.7573
     23 O2         26.6590    9.6438   15.8392 O.co2   1  lig        -0.7573
     24 O3         21.9714    7.0175   11.4223 O.3     1  lig        -0.4913
@<TRIPOS>BOND
     1     1    12    1
     2     2    13    1
     3     3    14    1
     4     4    15    1
     5     5    19    1
     6     6    19    1
     7     7    20    1
     8     8    21    1
     9     9    21    1
    10    10    21    1
    11    11    24    1
    12    12    14   ar
    13    12    16   ar
    14    13    15   ar
    15    13    16   ar
    16    14    17   ar
    17    15    17   ar
    18    16    19    1
    19    17    24    1
    20    18    20    1
    21    18    22    1
    22    18    23    1
    23    19    20    1
    24    20    21    1
@<TRIPOS>SUBSTRUCTURE
     1 lig         1 TEMP              0 ****  ****    0 ROOT


########## Name:		ligand
########## HA_RMSDs:		12.2968
########## HA_RMSDh:		12.2310
########## HA_RMSDm:		10.2484
########## Cluster Size:	1
##########    Grid Score:          -20.574619
##########      Grid_vdw:          -16.546288
##########       Grid_es:           -4.028331
##########    Int_energy:            4.203906

@<TRIPOS>MOLECULE
ligand
 24 24 1 0 0
SMALL
No Charge or Current Charge


@<TRIPOS>ATOM
      1 H1         10.1126    9.4044   20.9486 H       1  lig         0.1340
      2 H2         10.2329   11.7339   24.5227 H       1  lig         0.1340
      3 H3          7.9196    8.5672   21.6110 H       1  lig         0.1475
      4 H4          8.0406   10.8542   25.2220 H       1  lig         0.1475
      5 H5         11.5489   11.6620   21.3333 H       1  lig         0.0877
      6 H6         12.0162   11.9178   22.9846 H       1  lig         0.0877
      7 H7         13.7603   10.5445   22.3418 H       1  lig         0.0966
      8 H8         12.9118   10.3470   20.0554 H       1  lig         0.4431
      9 H9         13.4370    8.8562   20.5599 H       1  lig         0.4431
     10 H10        11.8062    9.1948   20.5412 H       1  lig         0.4431
     11 H11         6.4036    8.5978   22.9451 H       1  lig         0.4214
     12 C1          9.6730    9.7249   21.8897 C.ar    1  lig        -0.0999
     13 C2          9.7155   11.0210   23.8849 C.ar    1  lig        -0.0999
     14 C3          8.4410    9.2613   22.2610 C.ar    1  lig        -0.1787
     15 C4          8.4895   10.5283   24.2891 C.ar    1  lig        -0.1787
     16 C5         10.3192   10.6031   22.7045 C.ar    1  lig        -0.1394
     17 C6          7.8593    9.6181   23.4487 C.ar    1  lig         0.1292
     18 C7         12.5865    8.9820   23.1341 C.2     1  lig         0.9321
     19 C8         11.6755   11.1409   22.2895 C.3     1  lig        -0.0452
     20 C9         12.7852   10.1002   22.1367 C.3     1  lig        -0.0740
     21 N1         12.7469    9.6085   20.7599 N.4     1  lig        -0.8252
     22 O1         13.0427    9.2066   24.2531 O.co2   1  lig        -0.7573
     23 O2         12.0273    7.8846   22.8482 O.co2   1  lig        -0.7573
     24 O3          6.7030    9.1583   23.7184 O.3     1  lig        -0.4913
@<TRIPOS>BOND
     1     1    12    1
     2     2    13    1
     3     3    14    1
     4     4    15    1
     5     5    19    1
     6     6    19    1
     7     7    20    1
     8     8    21    1
     9     9    21    1
    10    10    21    1
    11    11    24    1
    12    12    14   ar
    13    12    16   ar
    14    13    15   ar
    15    13    16   ar
    16    14    17   ar
    17    15    17   ar
    18    16    19    1
    19    17    24    1
    20    18    20    1
    21    18    22    1
    22    18    23    1
    23    19    20    1
    24    20    21    1
@<TRIPOS>SUBSTRUCTURE
     1 lig         1 TEMP              0 ****  ****    0 ROOT


########## Name:		ligand
########## HA_RMSDs:		12.3249
########## HA_RMSDh:		12.2535
########## HA_RMSDm:		10.0838
########## Cluster Size:	1
##########    Grid Score:          -20.545053
##########      Grid_vdw:          -20.357342
##########       Grid_es:           -0.187712
##########    Int_energy:            2.902026

@<TRIPOS>MOLECULE
ligand
 24 24 1 0 0
SMALL
No Charge or Current Charge


@<TRIPOS>ATOM
      1 H1         10.8097    8.7422   19.7756 H       1  lig         0.1340
      2 H2          9.0753   10.1689   23.4049 H       1  lig         0.1340
      3 H3          8.7036    7.6306   19.2485 H       1  lig         0.1475
      4 H4          6.9615    9.0073   22.9028 H       1  lig         0.1475
      5 H5         11.4604   11.0867   21.2997 H       1  lig         0.0877
      6 H6         11.3560   10.6329   22.9712 H       1  lig         0.0877
      7 H7         12.7925    9.0697   20.7711 H       1  lig         0.0966
      8 H8         11.7011    7.5939   22.3890 H       1  lig         0.4431
      9 H9         13.3373    7.5684   22.6630 H       1  lig         0.4431
     10 H10        12.3472    8.4676   23.6558 H       1  lig         0.4431
     11 H11         5.9460    7.8405   21.3608 H       1  lig         0.4214
     12 C1          9.9770    8.8029   20.4719 C.ar    1  lig        -0.0999
     13 C2          8.9874    9.5935   22.4863 C.ar    1  lig        -0.0999
     14 C3          8.7932    8.1851   20.1762 C.ar    1  lig        -0.1787
     15 C4          7.8000    8.9401   22.2168 C.ar    1  lig        -0.1787
     16 C5         10.0813    9.5054   21.6331 C.ar    1  lig        -0.1394
     17 C6          7.7259    8.2136   21.0342 C.ar    1  lig         0.1292
     18 C7         13.8615   10.1910   22.2018 C.2     1  lig         0.9321
     19 C8         11.3827   10.2136   21.9581 C.3     1  lig        -0.0452
     20 C9         12.6519    9.3739   21.8094 C.3     1  lig        -0.0740
     21 N1         12.5031    8.1898   22.6546 N.4     1  lig        -0.8252
     22 O1         13.7986   11.3793   21.8944 O.co2   1  lig        -0.7573
     23 O2         14.8784    9.7008   22.7715 O.co2   1  lig        -0.7573
     24 O3          6.6510    7.6284   20.6828 O.3     1  lig        -0.4913
@<TRIPOS>BOND
     1     1    12    1
     2     2    13    1
     3     3    14    1
     4     4    15    1
     5     5    19    1
     6     6    19    1
     7     7    20    1
     8     8    21    1
     9     9    21    1
    10    10    21    1
    11    11    24    1
    12    12    14   ar
    13    12    16   ar
    14    13    15   ar
    15    13    16   ar
    16    14    17   ar
    17    15    17   ar
    18    16    19    1
    19    17    24    1
    20    18    20    1
    21    18    22    1
    22    18    23    1
    23    19    20    1
    24    20    21    1
@<TRIPOS>SUBSTRUCTURE
     1 lig         1 TEMP              0 ****  ****    0 ROOT


########## Name:		ligand
########## HA_RMSDs:		13.1543
########## HA_RMSDh:		13.0994
########## HA_RMSDm:		11.0783
########## Cluster Size:	3
##########    Grid Score:          -20.544451
##########      Grid_vdw:          -17.351492
##########       Grid_es:           -3.192959
##########    Int_energy:            3.413167

@<TRIPOS>MOLECULE
ligand
 24 24 1 0 0
SMALL
No Charge or Current Charge


@<TRIPOS>ATOM
      1 H1          8.2853    9.8990   24.1438 H       1  lig         0.1340
      2 H2         11.0426    9.4724   20.9141 H       1  lig         0.1340
      3 H3          6.5932    8.7662   22.8012 H       1  lig         0.1475
      4 H4          9.3236    8.3722   19.5342 H       1  lig         0.1475
      5 H5         11.3251    9.6961   24.0411 H       1  lig         0.0877
      6 H6         11.6149   10.8778   22.8041 H       1  lig         0.0877
      7 H7          9.2643   11.4291   24.6003 H       1  lig         0.0966
      8 H8          9.9993   12.9295   22.8127 H       1  lig         0.4431
      9 H9         10.2559   13.6741   24.2731 H       1  lig         0.4431
     10 H10        11.5365   12.9851   23.4607 H       1  lig         0.4431
     11 H11         6.0449    8.0582   20.9633 H       1  lig         0.4214
     12 C1          8.5238    9.5754   23.1338 C.ar    1  lig        -0.0999
     13 C2         10.0465    9.3200   21.3231 C.ar    1  lig        -0.0999
     14 C3          7.5785    8.9351   22.3807 C.ar    1  lig        -0.1787
     15 C4          9.0874    8.7080   20.5389 C.ar    1  lig        -0.1787
     16 C5          9.7617    9.7766   22.6049 C.ar    1  lig        -0.1394
     17 C6          7.8259    8.5320   21.0952 C.ar    1  lig         0.1292
     18 C7         11.0677   11.5067   25.6906 C.2     1  lig         0.9321
     19 C8         10.8236   10.4647   23.4414 C.3     1  lig        -0.0452
     20 C9         10.3233   11.5662   24.3764 C.3     1  lig        -0.0740
     21 N1         10.5228   12.8476   23.7006 N.4     1  lig        -0.8252
     22 O1         10.9367   10.4510   26.3062 O.co2   1  lig        -0.7573
     23 O2         11.7483   12.4684   26.1498 O.co2   1  lig        -0.7573
     24 O3          6.9013    7.9275   20.4620 O.3     1  lig        -0.4913
@<TRIPOS>BOND
     1     1    12    1
     2     2    13    1
     3     3    14    1
     4     4    15    1
     5     5    19    1
     6     6    19    1
     7     7    20    1
     8     8    21    1
     9     9    21    1
    10    10    21    1
    11    11    24    1
    12    12    14   ar
    13    12    16   ar
    14    13    15   ar
    15    13    16   ar
    16    14    17   ar
    17    15    17   ar
    18    16    19    1
    19    17    24    1
    20    18    20    1
    21    18    22    1
    22    18    23    1
    23    19    20    1
    24    20    21    1
@<TRIPOS>SUBSTRUCTURE
     1 lig         1 TEMP              0 ****  ****    0 ROOT


########## Name:		ligand
########## HA_RMSDs:		14.7303
########## HA_RMSDh:		14.6662
########## HA_RMSDm:		11.9844
########## Cluster Size:	2
##########    Grid Score:          -20.516289
##########      Grid_vdw:          -12.038198
##########       Grid_es:           -8.478089
##########    Int_energy:            3.929296

@<TRIPOS>MOLECULE
ligand
 24 24 1 0 0
SMALL
No Charge or Current Charge


@<TRIPOS>ATOM
      1 H1          9.3598    8.9435   26.4863 H       1  lig         0.1340
      2 H2         10.5047   13.0531   26.6134 H       1  lig         0.1340
      3 H3          9.3917    9.0474   24.0497 H       1  lig         0.1475
      4 H4         10.4901   13.1786   24.1531 H       1  lig         0.1475
      5 H5         10.5054   10.0649   28.5146 H       1  lig         0.0877
      6 H6         10.4375   11.7939   28.6433 H       1  lig         0.0877
      7 H7          7.8405   11.5535   28.4418 H       1  lig         0.0966
      8 H8          9.0710   12.0541   30.4966 H       1  lig         0.4431
      9 H9          7.8269   11.0180   30.8591 H       1  lig         0.4431
     10 H10         9.3807   10.4312   30.7333 H       1  lig         0.4431
     11 H11        10.0125   12.0153   22.3497 H       1  lig         0.4214
     12 C1          9.6028    9.8785   25.9880 C.ar    1  lig        -0.0999
     13 C2         10.2485   12.1684   26.0351 C.ar    1  lig        -0.0999
     14 C3          9.6267    9.9382   24.6218 C.ar    1  lig        -0.1787
     15 C4         10.2366   12.2507   24.6559 C.ar    1  lig        -0.1787
     16 C5          9.9078   10.9969   26.7015 C.ar    1  lig        -0.1394
     17 C6          9.9029   11.1001   23.9511 C.ar    1  lig         0.1292
     18 C7          7.9468    9.4569   28.6423 C.2     1  lig         0.9321
     19 C8          9.9070   10.9339   28.2170 C.3     1  lig        -0.0452
     20 C9          8.5318   10.8307   28.8776 C.3     1  lig        -0.0740
     21 N1          8.7017   11.1080   30.3034 N.4     1  lig        -0.8252
     22 O1          8.6343    8.5287   29.0621 O.co2   1  lig        -0.7573
     23 O2          6.8554    9.2592   28.0353 O.co2   1  lig        -0.7573
     24 O3          9.9224   11.0742   22.6782 O.3     1  lig        -0.4913
@<TRIPOS>BOND
     1     1    12    1
     2     2    13    1
     3     3    14    1
     4     4    15    1
     5     5    19    1
     6     6    19    1
     7     7    20    1
     8     8    21    1
     9     9    21    1
    10    10    21    1
    11    11    24    1
    12    12    14   ar
    13    12    16   ar
    14    13    15   ar
    15    13    16   ar
    16    14    17   ar
    17    15    17   ar
    18    16    19    1
    19    17    24    1
    20    18    20    1
    21    18    22    1
    22    18    23    1
    23    19    20    1
    24    20    21    1
@<TRIPOS>SUBSTRUCTURE
     1 lig         1 TEMP              0 ****  ****    0 ROOT


########## Name:		ligand
########## HA_RMSDs:		13.1205
########## HA_RMSDh:		13.0991
########## HA_RMSDm:		11.1951
########## Cluster Size:	1
##########    Grid Score:          -20.491776
##########      Grid_vdw:          -17.798079
##########       Grid_es:           -2.693696
##########    Int_energy:            2.808442

@<TRIPOS>MOLECULE
ligand
 24 24 1 0 0
SMALL
No Charge or Current Charge


@<TRIPOS>ATOM
      1 H1          9.0348   10.5093   23.4892 H       1  lig         0.1340
      2 H2          9.6185    8.1348   19.9911 H       1  lig         0.1340
      3 H3         11.3514   11.2545   23.3259 H       1  lig         0.1475
      4 H4         11.9734    8.8444   19.8491 H       1  lig         0.1475
      5 H5          7.2050    9.5265   22.4756 H       1  lig         0.0877
      6 H6          7.2559    8.8701   20.8702 H       1  lig         0.0877
      7 H7          6.6182    7.3754   23.0307 H       1  lig         0.0966
      8 H8          8.8266    7.7023   24.0323 H       1  lig         0.4431
      9 H9          8.6542    6.1013   23.6321 H       1  lig         0.4431
     10 H10         9.5628    7.1028   22.6596 H       1  lig         0.4431
     11 H11        12.9853   11.4167   21.1097 H       1  lig         0.4214
     12 C1          9.6692   10.1322   22.6910 C.ar    1  lig        -0.0999
     13 C2         10.0150    8.8216   20.7352 C.ar    1  lig        -0.0999
     14 C3         10.9671   10.5526   22.5939 C.ar    1  lig        -0.1787
     15 C4         11.3388    9.2084   20.6509 C.ar    1  lig        -0.1787
     16 C5          9.1889    9.2586   21.7643 C.ar    1  lig        -0.1394
     17 C6         11.8100   10.0857   21.6205 C.ar    1  lig         0.1292
     18 C7          7.3205    6.4155   21.2894 C.2     1  lig         0.9321
     19 C8          7.7439    8.8051   21.8503 C.3     1  lig        -0.0452
     20 C9          7.5195    7.4027   22.4166 C.3     1  lig        -0.0740
     21 N1          8.6836    7.0617   23.2335 N.4     1  lig        -0.8252
     22 O1          6.2453    6.5177   20.7028 O.co2   1  lig        -0.7573
     23 O2          8.1677    5.5283   20.9826 O.co2   1  lig        -0.7573
     24 O3         13.0007   10.5356   21.5842 O.3     1  lig        -0.4913
@<TRIPOS>BOND
     1     1    12    1
     2     2    13    1
     3     3    14    1
     4     4    15    1
     5     5    19    1
     6     6    19    1
     7     7    20    1
     8     8    21    1
     9     9    21    1
    10    10    21    1
    11    11    24    1
    12    12    14   ar
    13    12    16   ar
    14    13    15   ar
    15    13    16   ar
    16    14    17   ar
    17    15    17   ar
    18    16    19    1
    19    17    24    1
    20    18    20    1
    21    18    22    1
    22    18    23    1
    23    19    20    1
    24    20    21    1
@<TRIPOS>SUBSTRUCTURE
     1 lig         1 TEMP              0 ****  ****    0 ROOT


########## Name:		ligand
########## HA_RMSDs:		12.0414
########## HA_RMSDh:		11.9518
########## HA_RMSDm:		10.0505
########## Cluster Size:	2
##########    Grid Score:          -20.476225
##########      Grid_vdw:          -19.250700
##########       Grid_es:           -1.225525
##########    Int_energy:            2.895795

@<TRIPOS>MOLECULE
ligand
 24 24 1 0 0
SMALL
No Charge or Current Charge


@<TRIPOS>ATOM
      1 H1         10.2432    9.1959   21.2125 H       1  lig         0.1340
      2 H2         10.0724   12.0371   24.3928 H       1  lig         0.1340
      3 H3          8.0161    8.4201   21.8344 H       1  lig         0.1475
      4 H4          7.8436   11.2247   25.0574 H       1  lig         0.1475
      5 H5         11.7210   11.1948   21.2900 H       1  lig         0.0877
      6 H6         11.8305   12.1841   22.7112 H       1  lig         0.0877
      7 H7         12.7031    9.9930   23.9118 H       1  lig         0.0966
      8 H8         14.0204   11.9848   23.3785 H       1  lig         0.4431
      9 H9         14.9381   10.6386   23.0646 H       1  lig         0.4431
     10 H10        14.2191   11.4600   21.8065 H       1  lig         0.4431
     11 H11         6.2046    9.9221   24.3813 H       1  lig         0.4214
     12 C1          9.7315    9.6444   22.0603 C.ar    1  lig        -0.0999
     13 C2          9.6116   11.2256   23.8345 C.ar    1  lig        -0.0999
     14 C3          8.4803    9.2150   22.4078 C.ar    1  lig        -0.1787
     15 C4          8.3641   10.7725   24.2192 C.ar    1  lig        -0.1787
     16 C5         10.3059   10.6487   22.7774 C.ar    1  lig        -0.1394
     17 C6          7.8080    9.7330   23.4829 C.ar    1  lig         0.1292
     18 C7         12.9862    9.0517   22.0461 C.2     1  lig         0.9321
     19 C8         11.6835   11.1475   22.3846 C.3     1  lig        -0.0452
     20 C9         12.8611   10.3069   22.8789 C.3     1  lig        -0.0740
     21 N1         14.0644   11.1336   22.7932 N.4     1  lig        -0.8252
     22 O1         12.3495    8.0898   22.4705 O.co2   1  lig        -0.7573
     23 O2         13.7091    8.9710   21.0118 O.co2   1  lig        -0.7573
     24 O3          6.6398    9.2938   23.7351 O.3     1  lig        -0.4913
@<TRIPOS>BOND
     1     1    12    1
     2     2    13    1
     3     3    14    1
     4     4    15    1
     5     5    19    1
     6     6    19    1
     7     7    20    1
     8     8    21    1
     9     9    21    1
    10    10    21    1
    11    11    24    1
    12    12    14   ar
    13    12    16   ar
    14    13    15   ar
    15    13    16   ar
    16    14    17   ar
    17    15    17   ar
    18    16    19    1
    19    17    24    1
    20    18    20    1
    21    18    22    1
    22    18    23    1
    23    19    20    1
    24    20    21    1
@<TRIPOS>SUBSTRUCTURE
     1 lig         1 TEMP              0 ****  ****    0 ROOT


########## Name:		ligand
########## HA_RMSDs:		13.3201
########## HA_RMSDh:		13.2641
########## HA_RMSDm:		10.9905
########## Cluster Size:	2
##########    Grid Score:          -20.449539
##########      Grid_vdw:          -21.171831
##########       Grid_es:            0.722291
##########    Int_energy:            1.021223

@<TRIPOS>MOLECULE
ligand
 24 24 1 0 0
SMALL
No Charge or Current Charge


@<TRIPOS>ATOM
      1 H1         10.4828    8.3522   19.5563 H       1  lig         0.1340
      2 H2          8.4786    9.9249   22.9805 H       1  lig         0.1340
      3 H3         12.4855    9.5819   20.2086 H       1  lig         0.1475
      4 H4         10.4821   11.2089   23.6179 H       1  lig         0.1475
      5 H5          7.2576    8.9968   20.8529 H       1  lig         0.0877
      6 H6          8.1620    7.9788   19.7776 H       1  lig         0.0877
      7 H7          8.0345    7.2857   22.7378 H       1  lig         0.0966
      8 H8          9.5817    6.1141   21.2477 H       1  lig         0.4431
      9 H9          8.3760    5.0659   21.6956 H       1  lig         0.4431
     10 H10         8.3382    5.7730   20.1879 H       1  lig         0.4431
     11 H11        13.3067   11.0202   21.4116 H       1  lig         0.4214
     12 C1         10.4673    8.9790   20.4443 C.ar    1  lig        -0.0999
     13 C2          9.3718    9.8618   22.3635 C.ar    1  lig        -0.0999
     14 C3         11.5906    9.6654   20.8154 C.ar    1  lig        -0.1787
     15 C4         10.4883   10.5910   22.7256 C.ar    1  lig        -0.1787
     16 C5          9.3495    9.0797   21.2145 C.ar    1  lig        -0.1394
     17 C6         11.6102   10.4862   21.9118 C.ar    1  lig         0.1292
     18 C7          6.2941    6.8063   21.6479 C.2     1  lig         0.9321
     19 C8          8.1062    8.3034   20.8237 C.3     1  lig        -0.0452
     20 C9          7.7778    7.0909   21.6955 C.3     1  lig        -0.0740
     21 N1          8.5605    5.9604   21.1976 N.4     1  lig        -0.8252
     22 O1          5.6566    7.2499   22.6005 O.co2   1  lig        -0.7573
     23 O2          5.7419    6.1393   20.7265 O.co2   1  lig        -0.7573
     24 O3         12.6979   11.0802   22.2037 O.3     1  lig        -0.4913
@<TRIPOS>BOND
     1     1    12    1
     2     2    13    1
     3     3    14    1
     4     4    15    1
     5     5    19    1
     6     6    19    1
     7     7    20    1
     8     8    21    1
     9     9    21    1
    10    10    21    1
    11    11    24    1
    12    12    14   ar
    13    12    16   ar
    14    13    15   ar
    15    13    16   ar
    16    14    17   ar
    17    15    17   ar
    18    16    19    1
    19    17    24    1
    20    18    20    1
    21    18    22    1
    22    18    23    1
    23    19    20    1
    24    20    21    1
@<TRIPOS>SUBSTRUCTURE
     1 lig         1 TEMP              0 ****  ****    0 ROOT


########## Name:		ligand
########## HA_RMSDs:		12.3077
########## HA_RMSDh:		12.2776
########## HA_RMSDm:		10.2659
########## Cluster Size:	3
##########    Grid Score:          -20.445396
##########      Grid_vdw:          -19.871908
##########       Grid_es:           -0.573488
##########    Int_energy:            3.275513

@<TRIPOS>MOLECULE
ligand
 24 24 1 0 0
SMALL
No Charge or Current Charge


@<TRIPOS>ATOM
      1 H1          9.0839   10.0720   23.5343 H       1  lig         0.1340
      2 H2         10.7491    8.8716   19.7924 H       1  lig         0.1340
      3 H3          7.0080    8.9422   22.9318 H       1  lig         0.1475
      4 H4          8.6387    7.7713   19.1564 H       1  lig         0.1475
      5 H5         11.4114   11.1681   21.4778 H       1  lig         0.0877
      6 H6         11.3103   10.5892   23.1104 H       1  lig         0.0877
      7 H7         12.7744    9.2412   20.7932 H       1  lig         0.0966
      8 H8         11.6424    7.5946   22.2054 H       1  lig         0.4431
      9 H9         13.2715    7.5320   22.5141 H       1  lig         0.4431
     10 H10        12.2584    8.3159   23.5788 H       1  lig         0.4431
     11 H11         5.9481    7.9225   21.5441 H       1  lig         0.4214
     12 C1          8.9975    9.5774   22.5701 C.ar    1  lig        -0.0999
     13 C2          9.9081    8.8910   20.4815 C.ar    1  lig        -0.0999
     14 C3          7.8365    8.9385   22.2319 C.ar    1  lig        -0.1787
     15 C4          8.7265    8.2768   20.1129 C.ar    1  lig        -0.1787
     16 C5         10.0376    9.5618   21.6922 C.ar    1  lig        -0.1394
     17 C6          7.6734    8.3238   21.0188 C.ar    1  lig         0.1292
     18 C7         13.8093   10.1881   22.3677 C.2     1  lig         0.9321
     19 C8         11.3372   10.2476   22.0685 C.3     1  lig        -0.0452
     20 C9         12.6088    9.4256   21.8556 C.3     1  lig        -0.0740
     21 N1         12.4383    8.1534   22.5565 N.4     1  lig        -0.8252
     22 O1         13.6513   11.4049   22.4382 O.co2   1  lig        -0.7573
     23 O2         14.9061    9.6376   22.6724 O.co2   1  lig        -0.7573
     24 O3          6.5692    7.7356   20.7819 O.3     1  lig        -0.4913
@<TRIPOS>BOND
     1     1    12    1
     2     2    13    1
     3     3    14    1
     4     4    15    1
     5     5    19    1
     6     6    19    1
     7     7    20    1
     8     8    21    1
     9     9    21    1
    10    10    21    1
    11    11    24    1
    12    12    14   ar
    13    12    16   ar
    14    13    15   ar
    15    13    16   ar
    16    14    17   ar
    17    15    17   ar
    18    16    19    1
    19    17    24    1
    20    18    20    1
    21    18    22    1
    22    18    23    1
    23    19    20    1
    24    20    21    1
@<TRIPOS>SUBSTRUCTURE
     1 lig         1 TEMP              0 ****  ****    0 ROOT


########## Name:		ligand
########## HA_RMSDs:		12.9165
########## HA_RMSDh:		12.8378
########## HA_RMSDm:		10.8791
########## Cluster Size:	1
##########    Grid Score:          -20.435801
##########      Grid_vdw:          -17.656664
##########       Grid_es:           -2.779137
##########    Int_energy:            2.418212

@<TRIPOS>MOLECULE
ligand
 24 24 1 0 0
SMALL
No Charge or Current Charge


@<TRIPOS>ATOM
      1 H1          9.4923    8.5438   24.1820 H       1  lig         0.1340
      2 H2         11.6834   11.2742   21.7408 H       1  lig         0.1340
      3 H3          8.7039    7.4269   22.1621 H       1  lig         0.1475
      4 H4         10.8510   10.1819   19.6955 H       1  lig         0.1475
      5 H5         11.0835    9.9530   25.1596 H       1  lig         0.0877
      6 H6         12.1903   10.9270   24.2448 H       1  lig         0.0877
      7 H7         10.3162   12.6513   23.9376 H       1  lig         0.0966
      8 H8         12.0532   12.8168   25.6529 H       1  lig         0.4431
      9 H9         10.6252   13.3788   26.2839 H       1  lig         0.4431
     10 H10        11.1604   11.8524   26.6819 H       1  lig         0.4431
     11 H11         9.2260    8.7177   19.0319 H       1  lig         0.4214
     12 C1          9.7923    8.9164   23.2058 C.ar    1  lig        -0.0999
     13 C2         11.0119   10.4230   21.8255 C.ar    1  lig        -0.0999
     14 C3          9.3560    8.2887   22.0716 C.ar    1  lig        -0.1787
     15 C4         10.5452    9.8213   20.6725 C.ar    1  lig        -0.1787
     16 C5         10.6182    9.9918   23.0871 C.ar    1  lig        -0.1394
     17 C6          9.6877    8.7375   20.8208 C.ar    1  lig         0.1292
     18 C7          8.9452   11.5847   25.1332 C.2     1  lig         0.9321
     19 C8         11.1261   10.6798   24.3400 C.3     1  lig        -0.0452
     20 C9         10.3671   11.9383   24.7618 C.3     1  lig        -0.0740
     21 N1         11.0862   12.5351   25.8867 N.4     1  lig        -0.8252
     22 O1          8.8424   10.7322   26.0126 O.co2   1  lig        -0.7573
     23 O2          7.9319   12.0914   24.5717 O.co2   1  lig        -0.7573
     24 O3          9.2565    8.0913   19.8119 O.3     1  lig        -0.4913
@<TRIPOS>BOND
     1     1    12    1
     2     2    13    1
     3     3    14    1
     4     4    15    1
     5     5    19    1
     6     6    19    1
     7     7    20    1
     8     8    21    1
     9     9    21    1
    10    10    21    1
    11    11    24    1
    12    12    14   ar
    13    12    16   ar
    14    13    15   ar
    15    13    16   ar
    16    14    17   ar
    17    15    17   ar
    18    16    19    1
    19    17    24    1
    20    18    20    1
    21    18    22    1
    22    18    23    1
    23    19    20    1
    24    20    21    1
@<TRIPOS>SUBSTRUCTURE
     1 lig         1 TEMP              0 ****  ****    0 ROOT


########## Name:		ligand
########## HA_RMSDs:		13.9236
########## HA_RMSDh:		13.8701
########## HA_RMSDm:		12.2676
########## Cluster Size:	3
##########    Grid Score:          -20.429592
##########      Grid_vdw:          -16.210585
##########       Grid_es:           -4.219007
##########    Int_energy:            1.522422

@<TRIPOS>MOLECULE
ligand
 24 24 1 0 0
SMALL
No Charge or Current Charge


@<TRIPOS>ATOM
      1 H1         10.4731   10.7849   22.2424 H       1  lig         0.1340
      2 H2          6.8211    8.8758   23.3532 H       1  lig         0.1340
      3 H3         10.4735    9.4981   20.1705 H       1  lig         0.1475
      4 H4          6.8414    7.5364   21.2857 H       1  lig         0.1475
      5 H5          9.5716   11.2889   24.2549 H       1  lig         0.0877
      6 H6          7.8455   11.4551   24.1966 H       1  lig         0.0877
      7 H7          7.8525    9.0500   25.3767 H       1  lig         0.0966
      8 H8          7.0510   11.1620   26.3169 H       1  lig         0.4431
      9 H9          7.9095   10.3510   27.4824 H       1  lig         0.4431
     10 H10         8.6153   11.6236   26.6718 H       1  lig         0.4431
     11 H11         9.1640    8.4199   18.8202 H       1  lig         0.4214
     12 C1          9.6754   10.0725   22.0482 C.ar    1  lig        -0.0999
     13 C2          7.6357    9.0011   22.6438 C.ar    1  lig        -0.0999
     14 C3          9.6702    9.3535   20.8846 C.ar    1  lig        -0.1787
     15 C4          7.6416    8.2405   21.4903 C.ar    1  lig        -0.1787
     16 C5          8.6599    9.8942   22.9369 C.ar    1  lig        -0.1394
     17 C6          8.6997    8.4272   20.6085 C.ar    1  lig         0.1292
     18 C7          9.8733    9.3421   25.9040 C.2     1  lig         0.9321
     19 C8          8.6448   10.7045   24.2192 C.3     1  lig        -0.0452
     20 C9          8.5236    9.8993   25.5133 C.3     1  lig        -0.0740
     21 N1          7.9889   10.7899   26.5426 N.4     1  lig        -0.8252
     22 O1         10.4862   10.0158   26.7293 O.co2   1  lig        -0.7573
     23 O2         10.3615    8.2867   25.4074 O.co2   1  lig        -0.7573
     24 O3          8.7528    7.8080   19.4971 O.3     1  lig        -0.4913
@<TRIPOS>BOND
     1     1    12    1
     2     2    13    1
     3     3    14    1
     4     4    15    1
     5     5    19    1
     6     6    19    1
     7     7    20    1
     8     8    21    1
     9     9    21    1
    10    10    21    1
    11    11    24    1
    12    12    14   ar
    13    12    16   ar
    14    13    15   ar
    15    13    16   ar
    16    14    17   ar
    17    15    17   ar
    18    16    19    1
    19    17    24    1
    20    18    20    1
    21    18    22    1
    22    18    23    1
    23    19    20    1
    24    20    21    1
@<TRIPOS>SUBSTRUCTURE
     1 lig         1 TEMP              0 ****  ****    0 ROOT


########## Name:		ligand
########## HA_RMSDs:		14.4233
########## HA_RMSDh:		14.3795
########## HA_RMSDm:		12.5616
########## Cluster Size:	1
##########    Grid Score:          -20.398853
##########      Grid_vdw:          -17.565985
##########       Grid_es:           -2.832868
##########    Int_energy:            3.934158

@<TRIPOS>MOLECULE
ligand
 24 24 1 0 0
SMALL
No Charge or Current Charge


@<TRIPOS>ATOM
      1 H1          8.5136    7.1712   19.5221 H       1  lig         0.1340
      2 H2          7.3795    8.8490   23.2790 H       1  lig         0.1340
      3 H3         10.4886    8.6024   19.5200 H       1  lig         0.1475
      4 H4          9.3458   10.3331   23.2593 H       1  lig         0.1475
      5 H5          5.7365    7.6402   21.7317 H       1  lig         0.0877
      6 H6          6.3302    6.7162   20.3885 H       1  lig         0.0877
      7 H7          5.7924    5.1847   22.2022 H       1  lig         0.0966
      8 H8          6.0209    6.8201   24.0078 H       1  lig         0.4431
      9 H9          6.9465    5.4919   24.3710 H       1  lig         0.4431
     10 H10         7.6741    6.8702   23.7836 H       1  lig         0.4431
     11 H11        11.2358   10.5355   20.3379 H       1  lig         0.4214
     12 C1          8.6807    7.8635   20.3434 C.ar    1  lig        -0.0999
     13 C2          8.0715    8.8074   22.4411 C.ar    1  lig        -0.0999
     14 C3          9.7901    8.6633   20.3474 C.ar    1  lig        -0.1787
     15 C4          9.1678    9.6485   22.4361 C.ar    1  lig        -0.1787
     16 C5          7.8120    7.9370   21.3888 C.ar    1  lig        -0.1394
     17 C6         10.0288    9.5678   21.3480 C.ar    1  lig         0.1292
     18 C7          7.8620    4.9469   21.8750 C.2     1  lig         0.9321
     19 C8          6.5912    7.0368   21.4043 C.3     1  lig        -0.0452
     20 C9          6.6882    5.8000   22.2982 C.3     1  lig        -0.0740
     21 N1          6.8253    6.2596   23.6797 N.4     1  lig        -0.8252
     22 O1          8.9221    5.2209   22.4332 O.co2   1  lig        -0.7573
     23 O2          7.7842    4.0419   20.9953 O.co2   1  lig        -0.7573
     24 O3         11.0916   10.2667   21.2911 O.3     1  lig        -0.4913
@<TRIPOS>BOND
     1     1    12    1
     2     2    13    1
     3     3    14    1
     4     4    15    1
     5     5    19    1
     6     6    19    1
     7     7    20    1
     8     8    21    1
     9     9    21    1
    10    10    21    1
    11    11    24    1
    12    12    14   ar
    13    12    16   ar
    14    13    15   ar
    15    13    16   ar
    16    14    17   ar
    17    15    17   ar
    18    16    19    1
    19    17    24    1
    20    18    20    1
    21    18    22    1
    22    18    23    1
    23    19    20    1
    24    20    21    1
@<TRIPOS>SUBSTRUCTURE
     1 lig         1 TEMP              0 ****  ****    0 ROOT


########## Name:		ligand
########## HA_RMSDs:		14.1575
########## HA_RMSDh:		14.1057
########## HA_RMSDm:		11.7977
########## Cluster Size:	1
##########    Grid Score:          -20.392595
##########      Grid_vdw:          -17.312325
##########       Grid_es:           -3.080271
##########    Int_energy:            1.762668

@<TRIPOS>MOLECULE
ligand
 24 24 1 0 0
SMALL
No Charge or Current Charge


@<TRIPOS>ATOM
      1 H1         10.7568   10.3877   22.0436 H       1  lig         0.1340
      2 H2          7.2738    8.5518   23.6909 H       1  lig         0.1340
      3 H3         10.1390    9.5105   19.8532 H       1  lig         0.1475
      4 H4          6.6705    7.6210   21.4912 H       1  lig         0.1475
      5 H5          9.6363    9.2144   25.0333 H       1  lig         0.0877
      6 H6         10.3870   10.6078   24.3223 H       1  lig         0.0877
      7 H7          7.4716   10.9801   24.4351 H       1  lig         0.0966
      8 H8          9.1756   12.7180   24.1844 H       1  lig         0.4431
      9 H9          8.3302   12.9981   25.5843 H       1  lig         0.4431
     10 H10         9.8439   12.3069   25.6575 H       1  lig         0.4431
     11 H11         8.6558    8.6502   18.7082 H       1  lig         0.4214
     12 C1          9.8630    9.7781   21.9376 C.ar    1  lig        -0.0999
     13 C2          7.9115    8.7524   22.8332 C.ar    1  lig        -0.0999
     14 C3          9.5113    9.2895   20.7095 C.ar    1  lig        -0.1787
     15 C4          7.5682    8.2203   21.6050 C.ar    1  lig        -0.1787
     16 C5          9.0668    9.5057   23.0074 C.ar    1  lig        -0.1394
     17 C6          8.4083    8.4969   20.5327 C.ar    1  lig         0.1292
     18 C7          8.0285   10.4247   26.3918 C.2     1  lig         0.9321
     19 C8          9.4362   10.0632   24.3689 C.3     1  lig        -0.0452
     20 C9          8.3887   10.9626   25.0259 C.3     1  lig        -0.0740
     21 N1          8.9488   12.3111   25.1074 N.4     1  lig        -0.8252
     22 O1          7.3968    9.3704   26.3768 O.co2   1  lig        -0.7573
     23 O2          8.3174   11.0156   27.4716 O.co2   1  lig        -0.7573
     24 O3          8.1357    8.0926   19.3565 O.3     1  lig        -0.4913
@<TRIPOS>BOND
     1     1    12    1
     2     2    13    1
     3     3    14    1
     4     4    15    1
     5     5    19    1
     6     6    19    1
     7     7    20    1
     8     8    21    1
     9     9    21    1
    10    10    21    1
    11    11    24    1
    12    12    14   ar
    13    12    16   ar
    14    13    15   ar
    15    13    16   ar
    16    14    17   ar
    17    15    17   ar
    18    16    19    1
    19    17    24    1
    20    18    20    1
    21    18    22    1
    22    18    23    1
    23    19    20    1
    24    20    21    1
@<TRIPOS>SUBSTRUCTURE
     1 lig         1 TEMP              0 ****  ****    0 ROOT


########## Name:		ligand
########## HA_RMSDs:		13.7275
########## HA_RMSDh:		13.6949
########## HA_RMSDm:		11.1960
########## Cluster Size:	1
##########    Grid Score:          -20.348442
##########      Grid_vdw:          -16.322409
##########       Grid_es:           -4.026032
##########    Int_energy:            2.507073

@<TRIPOS>MOLECULE
ligand
 24 24 1 0 0
SMALL
No Charge or Current Charge


@<TRIPOS>ATOM
      1 H1         10.8082   12.8686   26.6343 H       1  lig         0.1340
      2 H2          7.7590   10.7463   24.5334 H       1  lig         0.1340
      3 H3         12.2725   12.6056   24.7015 H       1  lig         0.1475
      4 H4          9.2496   10.4335   22.5971 H       1  lig         0.1475
      5 H5          8.6521   12.8280   27.4923 H       1  lig         0.0877
      6 H6          7.2777   12.2871   26.5818 H       1  lig         0.0877
      7 H7          7.4455   10.0427   27.4104 H       1  lig         0.0966
      8 H8          6.7261   11.6972   29.0633 H       1  lig         0.4431
      9 H9          7.5701   10.4988   29.8408 H       1  lig         0.4431
     10 H10         8.3088   11.9579   29.5245 H       1  lig         0.4431
     11 H11        11.1653   11.1975   21.7552 H       1  lig         0.4214
     12 C1         10.4568   12.3279   25.7592 C.ar    1  lig        -0.0999
     13 C2          8.7688   11.1487   24.5665 C.ar    1  lig        -0.0999
     14 C3         11.2739   12.1836   24.6719 C.ar    1  lig        -0.1787
     15 C4          9.5994   10.9623   23.4781 C.ar    1  lig        -0.1787
     16 C5          9.2011   11.8046   25.7134 C.ar    1  lig        -0.1394
     17 C6         10.8831   11.4892   23.5577 C.ar    1  lig         0.1292
     18 C7          9.4808   10.0708   27.9615 C.2     1  lig         0.9321
     19 C8          8.2796   11.9802   26.9054 C.3     1  lig        -0.0452
     20 C9          8.1462   10.7676   27.8272 C.3     1  lig        -0.0740
     21 N1          7.6534   11.2436   29.1193 N.4     1  lig        -0.8252
     22 O1          9.5152    8.9353   27.4924 O.co2   1  lig        -0.7573
     23 O2         10.4817   10.5872   28.5362 O.co2   1  lig        -0.7573
     24 O3         11.6931   11.4111   22.5783 O.3     1  lig        -0.4913
@<TRIPOS>BOND
     1     1    12    1
     2     2    13    1
     3     3    14    1
     4     4    15    1
     5     5    19    1
     6     6    19    1
     7     7    20    1
     8     8    21    1
     9     9    21    1
    10    10    21    1
    11    11    24    1
    12    12    14   ar
    13    12    16   ar
    14    13    15   ar
    15    13    16   ar
    16    14    17   ar
    17    15    17   ar
    18    16    19    1
    19    17    24    1
    20    18    20    1
    21    18    22    1
    22    18    23    1
    23    19    20    1
    24    20    21    1
@<TRIPOS>SUBSTRUCTURE
     1 lig         1 TEMP              0 ****  ****    0 ROOT


########## Name:		ligand
########## HA_RMSDs:		13.9653
########## HA_RMSDh:		13.9653
########## HA_RMSDm:		12.1537
########## Cluster Size:	1
##########    Grid Score:          -20.347063
##########      Grid_vdw:          -18.731976
##########       Grid_es:           -1.615088
##########    Int_energy:            2.080063

@<TRIPOS>MOLECULE
ligand
 24 24 1 0 0
SMALL
No Charge or Current Charge


@<TRIPOS>ATOM
      1 H1          7.3679    9.1516   24.9194 H       1  lig         0.1340
      2 H2          9.9466    9.1594   21.5185 H       1  lig         0.1340
      3 H3          8.3097   11.2982   25.5932 H       1  lig         0.1475
      4 H4         10.9375   11.3031   22.2199 H       1  lig         0.1475
      5 H5          8.7024    7.2372   22.0241 H       1  lig         0.0877
      6 H6          8.0046    6.9726   23.5906 H       1  lig         0.0877
      7 H7          6.4881    8.6795   21.5866 H       1  lig         0.0966
      8 H8          5.7396    8.4753   23.9072 H       1  lig         0.4431
      9 H9          4.6606    7.6827   22.9270 H       1  lig         0.4431
     10 H10         5.7811    6.8103   23.7977 H       1  lig         0.4431
     11 H11         9.5275   12.8542   25.1382 H       1  lig         0.4214
     12 C1          8.1533    9.6088   24.3228 C.ar    1  lig        -0.0999
     13 C2          9.5948    9.6375   22.4297 C.ar    1  lig        -0.0999
     14 C3          8.6794   10.8151   24.6954 C.ar    1  lig        -0.1787
     15 C4         10.1614   10.8364   22.8182 C.ar    1  lig        -0.1787
     16 C5          8.6141    9.0110   23.1901 C.ar    1  lig        -0.1394
     17 C6          9.6871   11.4164   23.9889 C.ar    1  lig         0.1292
     18 C7          6.4286    6.6137   21.1672 C.2     1  lig         0.9321
     19 C8          8.0199    7.6844   22.7563 C.3     1  lig        -0.0452
     20 C9          6.6204    7.7510   22.1441 C.3     1  lig        -0.0740
     21 N1          5.6529    7.6909   23.2391 N.4     1  lig        -0.8252
     22 O1          7.0634    6.7249   20.1206 O.co2   1  lig        -0.7573
     23 O2          5.6560    5.6356   21.3797 O.co2   1  lig        -0.7573
     24 O3         10.1149   12.5472   24.3883 O.3     1  lig        -0.4913
@<TRIPOS>BOND
     1     1    12    1
     2     2    13    1
     3     3    14    1
     4     4    15    1
     5     5    19    1
     6     6    19    1
     7     7    20    1
     8     8    21    1
     9     9    21    1
    10    10    21    1
    11    11    24    1
    12    12    14   ar
    13    12    16   ar
    14    13    15   ar
    15    13    16   ar
    16    14    17   ar
    17    15    17   ar
    18    16    19    1
    19    17    24    1
    20    18    20    1
    21    18    22    1
    22    18    23    1
    23    19    20    1
    24    20    21    1
@<TRIPOS>SUBSTRUCTURE
     1 lig         1 TEMP              0 ****  ****    0 ROOT


########## Name:		ligand
########## HA_RMSDs:		14.1412
########## HA_RMSDh:		14.1035
########## HA_RMSDm:		11.9207
########## Cluster Size:	1
##########    Grid Score:          -20.347034
##########      Grid_vdw:          -18.040817
##########       Grid_es:           -2.306217
##########    Int_energy:            2.279158

@<TRIPOS>MOLECULE
ligand
 24 24 1 0 0
SMALL
No Charge or Current Charge


@<TRIPOS>ATOM
      1 H1          9.4169    7.8929   19.5217 H       1  lig         0.1340
      2 H2          7.4823    9.0987   23.1299 H       1  lig         0.1340
      3 H3         11.2196    9.4628   20.0062 H       1  lig         0.1475
      4 H4          9.2747   10.7221   23.6000 H       1  lig         0.1475
      5 H5          6.2801    7.8537   21.3872 H       1  lig         0.0877
      6 H6          7.0409    7.3340   19.9169 H       1  lig         0.0877
      7 H7          8.3921    5.6459   21.3676 H       1  lig         0.0966
      8 H8          6.4792    5.0768   19.9520 H       1  lig         0.4431
      9 H9          6.3948    4.1829   21.3473 H       1  lig         0.4431
     10 H10         5.4213    5.5220   21.1639 H       1  lig         0.4431
     11 H11        11.0692   11.9064   21.7149 H       1  lig         0.4214
     12 C1          9.3704    8.5109   20.4148 C.ar    1  lig        -0.0999
     13 C2          8.3132    9.1930   22.4346 C.ar    1  lig        -0.0999
     14 C3         10.3826    9.3881   20.6917 C.ar    1  lig        -0.1787
     15 C4          9.3102   10.1111   22.7036 C.ar    1  lig        -0.1787
     16 C5          8.3267    8.4142   21.2831 C.ar    1  lig        -0.1394
     17 C6         10.3547   10.2043   21.7914 C.ar    1  lig         0.1292
     18 C7          7.2543    6.0779   23.0897 C.2     1  lig         0.9321
     19 C8          7.2113    7.4271   20.9963 C.3     1  lig        -0.0452
     20 C9          7.3937    6.0279   21.5854 C.3     1  lig        -0.0740
     21 N1          6.3886    5.1557   20.9789 N.4     1  lig        -0.8252
     22 O1          6.1199    5.8543   23.5067 O.co2   1  lig        -0.7573
     23 O2          8.2099    6.3578   23.8690 O.co2   1  lig        -0.7573
     24 O3         11.3413   10.9839   21.9916 O.3     1  lig        -0.4913
@<TRIPOS>BOND
     1     1    12    1
     2     2    13    1
     3     3    14    1
     4     4    15    1
     5     5    19    1
     6     6    19    1
     7     7    20    1
     8     8    21    1
     9     9    21    1
    10    10    21    1
    11    11    24    1
    12    12    14   ar
    13    12    16   ar
    14    13    15   ar
    15    13    16   ar
    16    14    17   ar
    17    15    17   ar
    18    16    19    1
    19    17    24    1
    20    18    20    1
    21    18    22    1
    22    18    23    1
    23    19    20    1
    24    20    21    1
@<TRIPOS>SUBSTRUCTURE
     1 lig         1 TEMP              0 ****  ****    0 ROOT


########## Name:		ligand
########## HA_RMSDs:		13.8395
########## HA_RMSDh:		13.7748
########## HA_RMSDm:		12.2212
########## Cluster Size:	1
##########    Grid Score:          -20.337280
##########      Grid_vdw:          -16.405708
##########       Grid_es:           -3.931573
##########    Int_energy:            3.271304

@<TRIPOS>MOLECULE
ligand
 24 24 1 0 0
SMALL
No Charge or Current Charge


@<TRIPOS>ATOM
      1 H1          6.8382    8.7198   23.3956 H       1  lig         0.1340
      2 H2         10.3870   10.8901   22.4411 H       1  lig         0.1340
      3 H3          6.9886    7.5952   21.2366 H       1  lig         0.1475
      4 H4         10.5170    9.7946   20.2383 H       1  lig         0.1475
      5 H5          8.2501   11.6308   24.2145 H       1  lig         0.0877
      6 H6          7.6779   10.1852   24.9848 H       1  lig         0.0877
      7 H7         10.6020   11.0452   24.7367 H       1  lig         0.0966
      8 H8         10.3236    8.6213   24.5515 H       1  lig         0.4431
      9 H9         10.9616    8.9725   26.0423 H       1  lig         0.4431
     10 H10         9.3423    8.6082   25.9016 H       1  lig         0.4431
     11 H11         9.0011    8.6312   18.7718 H       1  lig         0.4214
     12 C1          7.6451    8.9690   22.7111 C.ar    1  lig        -0.0999
     13 C2          9.6289   10.1625   22.1611 C.ar    1  lig        -0.0999
     14 C3          7.7349    8.3359   21.5020 C.ar    1  lig        -0.1787
     15 C4          9.7068    9.5584   20.9208 C.ar    1  lig        -0.1787
     16 C5          8.5896    9.8911   23.0434 C.ar    1  lig        -0.1394
     17 C6          8.7193    8.6351   20.5978 C.ar    1  lig         0.1292
     18 C7          9.5547   11.2355   26.5571 C.2     1  lig         0.9321
     19 C8          8.5114   10.5810   24.3920 C.3     1  lig        -0.0452
     20 C9          9.7827   10.5297   25.2400 C.3     1  lig        -0.0740
     21 N1         10.1306    9.1227   25.4348 N.4     1  lig        -0.8252
     22 O1          8.6139   12.0263   26.5583 O.co2   1  lig        -0.7573
     23 O2         10.2837   11.0624   27.5756 O.co2   1  lig        -0.7573
     24 O3          8.7476    7.9922   19.4991 O.3     1  lig        -0.4913
@<TRIPOS>BOND
     1     1    12    1
     2     2    13    1
     3     3    14    1
     4     4    15    1
     5     5    19    1
     6     6    19    1
     7     7    20    1
     8     8    21    1
     9     9    21    1
    10    10    21    1
    11    11    24    1
    12    12    14   ar
    13    12    16   ar
    14    13    15   ar
    15    13    16   ar
    16    14    17   ar
    17    15    17   ar
    18    16    19    1
    19    17    24    1
    20    18    20    1
    21    18    22    1
    22    18    23    1
    23    19    20    1
    24    20    21    1
@<TRIPOS>SUBSTRUCTURE
     1 lig         1 TEMP              0 ****  ****    0 ROOT


########## Name:		ligand
########## HA_RMSDs:		12.2991
########## HA_RMSDh:		12.2273
########## HA_RMSDm:		10.1503
########## Cluster Size:	1
##########    Grid Score:          -20.309649
##########      Grid_vdw:          -18.097965
##########       Grid_es:           -2.211683
##########    Int_energy:            1.910061

@<TRIPOS>MOLECULE
ligand
 24 24 1 0 0
SMALL
No Charge or Current Charge


@<TRIPOS>ATOM
      1 H1         10.9176    9.7854   20.4117 H       1  lig         0.1340
      2 H2          8.8578   10.3743   24.1030 H       1  lig         0.1340
      3 H3          9.0295    8.4659   19.6102 H       1  lig         0.1475
      4 H4          6.9689    9.0010   23.3185 H       1  lig         0.1475
      5 H5         11.6268   11.4770   21.9444 H       1  lig         0.0877
      6 H6         10.8257   11.7989   23.4495 H       1  lig         0.0877
      7 H7         11.8399    9.5520   24.3063 H       1  lig         0.0966
      8 H8         12.6344   11.7875   24.9049 H       1  lig         0.4431
      9 H9         13.9455   10.7883   24.7163 H       1  lig         0.4431
     10 H10        13.5448   11.8626   23.5080 H       1  lig         0.4431
     11 H11         6.1571    8.5430   20.8283 H       1  lig         0.4214
     12 C1         10.0620    9.6160   21.0605 C.ar    1  lig        -0.0999
     13 C2          8.8923    9.9376   23.1077 C.ar    1  lig        -0.0999
     14 C3          8.9995    8.8811   20.6116 C.ar    1  lig        -0.1787
     15 C4          7.8309    9.1634   22.6793 C.ar    1  lig        -0.1787
     16 C5         10.0155   10.1428   22.3148 C.ar    1  lig        -0.1394
     17 C6          7.9116    8.6209   21.4022 C.ar    1  lig         0.1292
     18 C7         13.0530    9.3529   22.5929 C.2     1  lig         0.9321
     19 C8         11.1791   10.9791   22.8124 C.3     1  lig        -0.0452
     20 C9         12.2747   10.2169   23.5586 C.3     1  lig        -0.0740
     21 N1         13.1338   11.2021   24.2143 N.4     1  lig        -0.8252
     22 O1         13.8244    9.9695   21.8612 O.co2   1  lig        -0.7573
     23 O2         12.9103    8.0994   22.5090 O.co2   1  lig        -0.7573
     24 O3          6.9536    7.9424   20.9091 O.3     1  lig        -0.4913
@<TRIPOS>BOND
     1     1    12    1
     2     2    13    1
     3     3    14    1
     4     4    15    1
     5     5    19    1
     6     6    19    1
     7     7    20    1
     8     8    21    1
     9     9    21    1
    10    10    21    1
    11    11    24    1
    12    12    14   ar
    13    12    16   ar
    14    13    15   ar
    15    13    16   ar
    16    14    17   ar
    17    15    17   ar
    18    16    19    1
    19    17    24    1
    20    18    20    1
    21    18    22    1
    22    18    23    1
    23    19    20    1
    24    20    21    1
@<TRIPOS>SUBSTRUCTURE
     1 lig         1 TEMP              0 ****  ****    0 ROOT


########## Name:		ligand
########## HA_RMSDs:		13.8012
########## HA_RMSDh:		13.7477
########## HA_RMSDm:		11.6423
########## Cluster Size:	1
##########    Grid Score:          -20.269405
##########      Grid_vdw:          -16.649910
##########       Grid_es:           -3.619495
##########    Int_energy:            1.174923

@<TRIPOS>MOLECULE
ligand
 24 24 1 0 0
SMALL
No Charge or Current Charge


@<TRIPOS>ATOM
      1 H1          7.7438   10.0835   25.3793 H       1  lig         0.1340
      2 H2         10.3745    9.5680   22.0583 H       1  lig         0.1340
      3 H3          6.0544    8.7808   24.1971 H       1  lig         0.1475
      4 H4          8.6550    8.2939   20.8379 H       1  lig         0.1475
      5 H5         10.3767   10.2403   25.4935 H       1  lig         0.0877
      6 H6         11.1849   10.6442   24.0122 H       1  lig         0.0877
      7 H7          8.8252   12.3758   24.6942 H       1  lig         0.0966
      8 H8         10.2746   12.7270   22.7544 H       1  lig         0.4431
      9 H9         10.4710   13.9971   23.8038 H       1  lig         0.4431
     10 H10        11.6186   12.7915   23.7420 H       1  lig         0.4431
     11 H11         5.6028    8.4277   21.5647 H       1  lig         0.4214
     12 C1          7.9538    9.7028   24.3830 C.ar    1  lig        -0.0999
     13 C2          9.4065    9.3965   22.5233 C.ar    1  lig        -0.0999
     14 C3          7.0103    8.9674   23.7200 C.ar    1  lig        -0.1787
     15 C4          8.4464    8.6865   21.8281 C.ar    1  lig        -0.1787
     16 C5          9.1554    9.9262   23.7838 C.ar    1  lig        -0.1394
     17 C6          7.2212    8.4889   22.4540 C.ar    1  lig         0.1292
     18 C7         10.3465   12.6135   26.1352 C.2     1  lig         0.9321
     19 C8         10.2165   10.7207   24.5212 C.3     1  lig        -0.0452
     20 C9          9.9002   12.1988   24.7518 C.3     1  lig        -0.0740
     21 N1         10.5831   12.9671   23.7116 N.4     1  lig        -0.8252
     22 O1          9.5613   12.3232   27.0351 O.co2   1  lig        -0.7573
     23 O2         11.4221   13.2381   26.3622 O.co2   1  lig        -0.7573
     24 O3          6.3018    7.7984   21.9070 O.3     1  lig        -0.4913
@<TRIPOS>BOND
     1     1    12    1
     2     2    13    1
     3     3    14    1
     4     4    15    1
     5     5    19    1
     6     6    19    1
     7     7    20    1
     8     8    21    1
     9     9    21    1
    10    10    21    1
    11    11    24    1
    12    12    14   ar
    13    12    16   ar
    14    13    15   ar
    15    13    16   ar
    16    14    17   ar
    17    15    17   ar
    18    16    19    1
    19    17    24    1
    20    18    20    1
    21    18    22    1
    22    18    23    1
    23    19    20    1
    24    20    21    1
@<TRIPOS>SUBSTRUCTURE
     1 lig         1 TEMP              0 ****  ****    0 ROOT


########## Name:		ligand
########## HA_RMSDs:		14.4927
########## HA_RMSDh:		14.4528
########## HA_RMSDm:		12.5409
########## Cluster Size:	1
##########    Grid Score:          -20.259705
##########      Grid_vdw:          -16.722446
##########       Grid_es:           -3.537259
##########    Int_energy:            3.149905

@<TRIPOS>MOLECULE
ligand
 24 24 1 0 0
SMALL
No Charge or Current Charge


@<TRIPOS>ATOM
      1 H1         21.7142    6.3716   11.8639 H       1  lig         0.1340
      2 H2         25.5382    4.7397   12.8279 H       1  lig         0.1340
      3 H3         22.4422    8.5170   12.7673 H       1  lig         0.1475
      4 H4         26.2627    6.8900   13.7873 H       1  lig         0.1475
      5 H5         22.4043    4.2893   10.9393 H       1  lig         0.0877
      6 H6         23.9643    3.5852   11.2242 H       1  lig         0.0877
      7 H7         22.4570    2.1016   12.2987 H       1  lig         0.0966
      8 H8         20.5403    3.6196   12.2038 H       1  lig         0.4431
      9 H9         20.6571    3.0035   13.7400 H       1  lig         0.4431
     10 H10        21.1887    4.5509   13.4278 H       1  lig         0.4431
     11 H11        25.5071    8.8979   14.3421 H       1  lig         0.4214
     12 C1         22.7104    6.4699   12.2878 C.ar    1  lig        -0.0999
     13 C2         24.8517    5.5830   12.8272 C.ar    1  lig        -0.0999
     14 C3         23.1232    7.6732   12.7901 C.ar    1  lig        -0.1787
     15 C4         25.2650    6.7830   13.3736 C.ar    1  lig        -0.1787
     16 C5         23.5721    5.4164   12.3102 C.ar    1  lig        -0.1394
     17 C6         24.3596    7.8374   13.3561 C.ar    1  lig         0.1292
     18 C7         23.3612    3.0139   13.9711 C.2     1  lig         0.9321
     19 C8         23.1313    4.0843   11.7338 C.3     1  lig        -0.0452
     20 C9         22.5072    3.1037   12.7272 C.3     1  lig        -0.0740
     21 N1         21.1579    3.5781   13.0320 N.4     1  lig        -0.8252
     22 O1         24.3171    2.2465   13.8819 O.co2   1  lig        -0.7573
     23 O2         23.1082    3.6454   15.0370 O.co2   1  lig        -0.7573
     24 O3         24.6790    8.9919   13.7880 O.3     1  lig        -0.4913
@<TRIPOS>BOND
     1     1    12    1
     2     2    13    1
     3     3    14    1
     4     4    15    1
     5     5    19    1
     6     6    19    1
     7     7    20    1
     8     8    21    1
     9     9    21    1
    10    10    21    1
    11    11    24    1
    12    12    14   ar
    13    12    16   ar
    14    13    15   ar
    15    13    16   ar
    16    14    17   ar
    17    15    17   ar
    18    16    19    1
    19    17    24    1
    20    18    20    1
    21    18    22    1
    22    18    23    1
    23    19    20    1
    24    20    21    1
@<TRIPOS>SUBSTRUCTURE
     1 lig         1 TEMP              0 ****  ****    0 ROOT


########## Name:		ligand
########## HA_RMSDs:		11.9531
########## HA_RMSDh:		11.9084
########## HA_RMSDm:		9.8674
########## Cluster Size:	1
##########    Grid Score:          -20.257088
##########      Grid_vdw:          -18.423059
##########       Grid_es:           -1.834027
##########    Int_energy:            1.659866

@<TRIPOS>MOLECULE
ligand
 24 24 1 0 0
SMALL
No Charge or Current Charge


@<TRIPOS>ATOM
      1 H1         10.5182   11.9337   24.0022 H       1  lig         0.1340
      2 H2         10.1860    8.7835   21.1419 H       1  lig         0.1340
      3 H3          8.3149   11.3370   24.8615 H       1  lig         0.1475
      4 H4          7.9392    8.2075   21.9721 H       1  lig         0.1475
      5 H5         11.8892   10.4890   20.9169 H       1  lig         0.0877
      6 H6         12.0089   11.8521   21.9837 H       1  lig         0.0877
      7 H7         12.8349   10.0150   23.7615 H       1  lig         0.0966
      8 H8         14.1142   11.8955   22.8595 H       1  lig         0.4431
      9 H9         15.0880   10.5524   22.8872 H       1  lig         0.4431
     10 H10        14.4071   11.0497   21.4507 H       1  lig         0.4431
     11 H11         6.5542   10.2998   24.5203 H       1  lig         0.4214
     12 C1          9.9615   11.1198   23.5446 C.ar    1  lig        -0.0999
     13 C2          9.7580    9.3533   21.9633 C.ar    1  lig        -0.0999
     14 C3          8.7281   10.7796   24.0280 C.ar    1  lig        -0.1787
     15 C4          8.4944    9.0269   22.4174 C.ar    1  lig        -0.1787
     16 C5         10.4796   10.4111   22.5044 C.ar    1  lig        -0.1394
     17 C6          7.9801    9.7784   23.4675 C.ar    1  lig         0.1292
     18 C7         13.2397    8.7025   22.1614 C.2     1  lig         0.9321
     19 C8         11.8569   10.7660   21.9771 C.3     1  lig        -0.0452
     20 C9         13.0342   10.1026   22.6925 C.3     1  lig        -0.0740
     21 N1         14.2138   10.9399   22.4776 N.4     1  lig        -0.8252
     22 O1         12.5974    7.8333   22.7467 O.co2   1  lig        -0.7573
     23 O2         14.0296    8.4258   21.2136 O.co2   1  lig        -0.7573
     24 O3          6.8474    9.5083   23.9826 O.3     1  lig        -0.4913
@<TRIPOS>BOND
     1     1    12    1
     2     2    13    1
     3     3    14    1
     4     4    15    1
     5     5    19    1
     6     6    19    1
     7     7    20    1
     8     8    21    1
     9     9    21    1
    10    10    21    1
    11    11    24    1
    12    12    14   ar
    13    12    16   ar
    14    13    15   ar
    15    13    16   ar
    16    14    17   ar
    17    15    17   ar
    18    16    19    1
    19    17    24    1
    20    18    20    1
    21    18    22    1
    22    18    23    1
    23    19    20    1
    24    20    21    1
@<TRIPOS>SUBSTRUCTURE
     1 lig         1 TEMP              0 ****  ****    0 ROOT


########## Name:		ligand
########## HA_RMSDs:		13.8976
########## HA_RMSDh:		13.8576
########## HA_RMSDm:		11.4286
########## Cluster Size:	1
##########    Grid Score:          -20.253498
##########      Grid_vdw:          -19.038166
##########       Grid_es:           -1.215333
##########    Int_energy:            2.383162

@<TRIPOS>MOLECULE
ligand
 24 24 1 0 0
SMALL
No Charge or Current Charge


@<TRIPOS>ATOM
      1 H1          9.7068    7.9433   19.5837 H       1  lig         0.1340
      2 H2          8.2206    9.5791   23.2349 H       1  lig         0.1340
      3 H3         11.6856    9.3528   19.7999 H       1  lig         0.1475
      4 H4         10.1930   11.0417   23.4335 H       1  lig         0.1475
      5 H5          6.7495    8.4467   21.0299 H       1  lig         0.0877
      6 H6          7.6918    7.1334   20.3991 H       1  lig         0.0877
      7 H7          8.0147    7.1127   23.2788 H       1  lig         0.0966
      8 H8          8.1525    5.2267   21.7262 H       1  lig         0.4431
      9 H9          6.9772    4.9055   22.8525 H       1  lig         0.4431
     10 H10         6.5425    5.4097   21.3256 H       1  lig         0.4431
     11 H11        12.5396   10.9940   20.7366 H       1  lig         0.4214
     12 C1          9.7978    8.6218   20.4282 C.ar    1  lig        -0.0999
     13 C2          8.9921    9.5420   22.4694 C.ar    1  lig        -0.0999
     14 C3         10.9089    9.4093   20.5547 C.ar    1  lig        -0.1787
     15 C4         10.0913   10.3711   22.5862 C.ar    1  lig        -0.1787
     16 C5          8.8303    8.6898   21.3832 C.ar    1  lig        -0.1394
     17 C6         11.0555   10.2966   21.5878 C.ar    1  lig         0.1292
     18 C7          5.9366    7.4027   23.0687 C.2     1  lig         0.9321
     19 C8          7.6055    7.8029   21.2635 C.3     1  lig        -0.0452
     20 C9          7.2667    6.9668   22.4981 C.3     1  lig        -0.0740
     21 N1          7.2454    5.5622   22.0916 N.4     1  lig        -0.8252
     22 O1          5.9444    8.5129   23.5958 O.co2   1  lig        -0.7573
     23 O2          4.8979    6.6820   23.0434 O.co2   1  lig        -0.7573
     24 O3         12.1252   10.9846   21.6476 O.3     1  lig        -0.4913
@<TRIPOS>BOND
     1     1    12    1
     2     2    13    1
     3     3    14    1
     4     4    15    1
     5     5    19    1
     6     6    19    1
     7     7    20    1
     8     8    21    1
     9     9    21    1
    10    10    21    1
    11    11    24    1
    12    12    14   ar
    13    12    16   ar
    14    13    15   ar
    15    13    16   ar
    16    14    17   ar
    17    15    17   ar
    18    16    19    1
    19    17    24    1
    20    18    20    1
    21    18    22    1
    22    18    23    1
    23    19    20    1
    24    20    21    1
@<TRIPOS>SUBSTRUCTURE
     1 lig         1 TEMP              0 ****  ****    0 ROOT


########## Name:		ligand
########## HA_RMSDs:		14.7545
########## HA_RMSDh:		14.6737
########## HA_RMSDm:		12.2176
########## Cluster Size:	1
##########    Grid Score:          -20.253391
##########      Grid_vdw:          -18.249926
##########       Grid_es:           -2.003466
##########    Int_energy:            2.309355

@<TRIPOS>MOLECULE
ligand
 24 24 1 0 0
SMALL
No Charge or Current Charge


@<TRIPOS>ATOM
      1 H1          9.4378    9.4768   21.0650 H       1  lig         0.1340
      2 H2          7.3425    7.9356   24.4488 H       1  lig         0.1340
      3 H3          8.1150    8.0174   19.6266 H       1  lig         0.1475
      4 H4          6.0378    6.4229   23.0069 H       1  lig         0.1475
      5 H5          9.5355    9.1441   24.6606 H       1  lig         0.0877
      6 H6         10.2707    9.9254   23.2969 H       1  lig         0.0877
      7 H7          7.6459   11.1033   23.6484 H       1  lig         0.0966
      8 H8          9.6465   12.1260   22.6797 H       1  lig         0.4431
      9 H9          9.1407   13.0522   23.9601 H       1  lig         0.4431
     10 H10        10.4368   12.0226   24.1462 H       1  lig         0.4431
     11 H11         5.8951    5.6900   20.9210 H       1  lig         0.4214
     12 C1          8.7011    8.8085   21.5036 C.ar    1  lig        -0.0999
     13 C2          7.5151    7.9405   23.3751 C.ar    1  lig        -0.0999
     14 C3          7.9541    7.9930   20.6988 C.ar    1  lig        -0.1787
     15 C4          6.7831    7.0837   22.5756 C.ar    1  lig        -0.1787
     16 C5          8.4889    8.7809   22.8478 C.ar    1  lig        -0.1394
     17 C6          7.0326    7.1173   21.2086 C.ar    1  lig         0.1292
     18 C7          8.3769   11.0502   25.6257 C.2     1  lig         0.9321
     19 C8          9.2960    9.6990   23.7459 C.3     1  lig        -0.0452
     20 C9          8.6187   11.0137   24.1340 C.3     1  lig        -0.0740
     21 N1          9.4887   12.1066   23.7013 N.4     1  lig        -0.8252
     22 O1          7.7405   10.0949   26.0650 O.co2   1  lig        -0.7573
     23 O2          8.7630   11.9959   26.3710 O.co2   1  lig        -0.7573
     24 O3          6.3636    6.4013   20.3955 O.3     1  lig        -0.4913
@<TRIPOS>BOND
     1     1    12    1
     2     2    13    1
     3     3    14    1
     4     4    15    1
     5     5    19    1
     6     6    19    1
     7     7    20    1
     8     8    21    1
     9     9    21    1
    10    10    21    1
    11    11    24    1
    12    12    14   ar
    13    12    16   ar
    14    13    15   ar
    15    13    16   ar
    16    14    17   ar
    17    15    17   ar
    18    16    19    1
    19    17    24    1
    20    18    20    1
    21    18    22    1
    22    18    23    1
    23    19    20    1
    24    20    21    1
@<TRIPOS>SUBSTRUCTURE
     1 lig         1 TEMP              0 ****  ****    0 ROOT


########## Name:		ligand
########## HA_RMSDs:		13.4457
########## HA_RMSDh:		13.3999
########## HA_RMSDm:		11.7205
########## Cluster Size:	2
##########    Grid Score:          -20.250751
##########      Grid_vdw:          -17.149685
##########       Grid_es:           -3.101067
##########    Int_energy:            2.136576

@<TRIPOS>MOLECULE
ligand
 24 24 1 0 0
SMALL
No Charge or Current Charge


@<TRIPOS>ATOM
      1 H1          8.2624    8.3568   24.0455 H       1  lig         0.1340
      2 H2         11.3852   10.3722   21.9472 H       1  lig         0.1340
      3 H3          7.2273    7.8095   21.9059 H       1  lig         0.1475
      4 H4         10.3187    9.8659   19.7849 H       1  lig         0.1475
      5 H5         10.2422    8.9698   25.1750 H       1  lig         0.0877
      6 H6         11.6241    9.6592   24.3840 H       1  lig         0.0877
      7 H7         10.5304   11.9141   24.3915 H       1  lig         0.0966
      8 H8         11.8930   11.1567   26.2773 H       1  lig         0.4431
      9 H9         10.6574   12.1000   26.8571 H       1  lig         0.4431
     10 H10        10.5598   10.4419   26.9827 H       1  lig         0.4431
     11 H11         8.6356    8.8100   18.8825 H       1  lig         0.4214
     12 C1          8.7196    8.6987   23.1203 C.ar    1  lig        -0.0999
     13 C2         10.4542    9.8105   21.9296 C.ar    1  lig        -0.0999
     14 C3          8.1442    8.3885   21.9189 C.ar    1  lig        -0.1787
     15 C4          9.8603    9.5372   20.7122 C.ar    1  lig        -0.1787
     16 C5          9.8754    9.4176   23.1309 C.ar    1  lig        -0.1394
     17 C6          8.6707    8.8187   20.7298 C.ar    1  lig         0.1292
     18 C7          8.6916   11.2561   25.1871 C.2     1  lig         0.9321
     19 C8         10.5333    9.7460   24.4576 C.3     1  lig        -0.0452
     20 C9         10.1901   11.1133   25.0498 C.3     1  lig        -0.0740
     21 N1         10.8632   11.2190   26.3438 N.4     1  lig        -0.8252
     22 O1          8.1555   11.9098   24.2950 O.co2   1  lig        -0.7573
     23 O2          8.0316   10.7758   26.1528 O.co2   1  lig        -0.7573
     24 O3          8.0877    8.4764   19.6508 O.3     1  lig        -0.4913
@<TRIPOS>BOND
     1     1    12    1
     2     2    13    1
     3     3    14    1
     4     4    15    1
     5     5    19    1
     6     6    19    1
     7     7    20    1
     8     8    21    1
     9     9    21    1
    10    10    21    1
    11    11    24    1
    12    12    14   ar
    13    12    16   ar
    14    13    15   ar
    15    13    16   ar
    16    14    17   ar
    17    15    17   ar
    18    16    19    1
    19    17    24    1
    20    18    20    1
    21    18    22    1
    22    18    23    1
    23    19    20    1
    24    20    21    1
@<TRIPOS>SUBSTRUCTURE
     1 lig         1 TEMP              0 ****  ****    0 ROOT


########## Name:		ligand
########## HA_RMSDs:		13.5337
########## HA_RMSDh:		13.5034
########## HA_RMSDm:		11.2218
########## Cluster Size:	1
##########    Grid Score:          -20.248287
##########      Grid_vdw:          -20.329384
##########       Grid_es:            0.081097
##########    Int_energy:            3.316878

@<TRIPOS>MOLECULE
ligand
 24 24 1 0 0
SMALL
No Charge or Current Charge


@<TRIPOS>ATOM
      1 H1         10.4339    8.0234   19.4490 H       1  lig         0.1340
      2 H2          8.1381    9.4005   22.7729 H       1  lig         0.1340
      3 H3         12.1844    9.6137   20.0455 H       1  lig         0.1475
      4 H4          9.8801   11.0435   23.3515 H       1  lig         0.1475
      5 H5          7.1399    8.1803   20.6118 H       1  lig         0.0877
      6 H6          8.2546    7.2059   19.7070 H       1  lig         0.0877
      7 H7          7.6886    6.8685   22.6967 H       1  lig         0.0966
      8 H8          9.9447    6.2196   22.0069 H       1  lig         0.4431
      9 H9          9.0665    4.8466   22.3178 H       1  lig         0.4431
     10 H10         9.3247    5.3232   20.7427 H       1  lig         0.4431
     11 H11        12.7960   11.1257   21.2414 H       1  lig         0.4214
     12 C1         10.2973    8.6832   20.3020 C.ar    1  lig        -0.0999
     13 C2          9.0377    9.4612   22.1651 C.ar    1  lig        -0.0999
     14 C3         11.2796    9.5721   20.6420 C.ar    1  lig        -0.1787
     15 C4         10.0061   10.3905   22.4937 C.ar    1  lig        -0.1787
     16 C5          9.1677    8.6285   21.0595 C.ar    1  lig        -0.1394
     17 C6         11.1410   10.4397   21.6929 C.ar    1  lig         0.1292
     18 C7          6.6859    5.6537   21.2947 C.2     1  lig         0.9321
     19 C8          8.0831    7.6293   20.7041 C.3     1  lig        -0.0452
     20 C9          7.8849    6.4822   21.6954 C.3     1  lig        -0.0740
     21 N1          9.1118    5.6864   21.7054 N.4     1  lig        -0.8252
     22 O1          5.7961    6.2822   20.7255 O.co2   1  lig        -0.7573
     23 O2          6.5765    4.4193   21.5460 O.co2   1  lig        -0.7573
     24 O3         12.1054   11.2275   21.9585 O.3     1  lig        -0.4913
@<TRIPOS>BOND
     1     1    12    1
     2     2    13    1
     3     3    14    1
     4     4    15    1
     5     5    19    1
     6     6    19    1
     7     7    20    1
     8     8    21    1
     9     9    21    1
    10    10    21    1
    11    11    24    1
    12    12    14   ar
    13    12    16   ar
    14    13    15   ar
    15    13    16   ar
    16    14    17   ar
    17    15    17   ar
    18    16    19    1
    19    17    24    1
    20    18    20    1
    21    18    22    1
    22    18    23    1
    23    19    20    1
    24    20    21    1
@<TRIPOS>SUBSTRUCTURE
     1 lig         1 TEMP              0 ****  ****    0 ROOT


########## Name:		ligand
########## HA_RMSDs:		14.5621
########## HA_RMSDh:		14.5289
########## HA_RMSDm:		12.7619
########## Cluster Size:	1
##########    Grid Score:          -20.236605
##########      Grid_vdw:          -15.579994
##########       Grid_es:           -4.656610
##########    Int_energy:            3.117399

@<TRIPOS>MOLECULE
ligand
 24 24 1 0 0
SMALL
No Charge or Current Charge


@<TRIPOS>ATOM
      1 H1         21.8405    4.5822   12.2949 H       1  lig         0.1340
      2 H2         25.8859    5.7515   12.9895 H       1  lig         0.1340
      3 H3         21.3002    6.8999   11.7609 H       1  lig         0.1475
      4 H4         25.3365    8.1026   12.4999 H       1  lig         0.1475
      5 H5         23.6686    2.9463   12.3258 H       1  lig         0.0877
      6 H6         25.2878    3.3744   12.7793 H       1  lig         0.0877
      7 H7         24.3549    2.1303   14.6194 H       1  lig         0.0966
      8 H8         22.0133    2.4709   13.9969 H       1  lig         0.4431
      9 H9         22.2034    2.8701   15.5961 H       1  lig         0.4431
     10 H10        22.1026    4.0747   14.4502 H       1  lig         0.4431
     11 H11        21.9106    8.8288   11.6690 H       1  lig         0.4214
     12 C1         22.6138    5.3441   12.3497 C.ar    1  lig        -0.0999
     13 C2         24.8652    6.0173   12.7246 C.ar    1  lig        -0.0999
     14 C3         22.3149    6.6437   12.0455 C.ar    1  lig        -0.1787
     15 C4         24.5656    7.3396   12.4583 C.ar    1  lig        -0.1787
     16 C5         23.8909    5.0262   12.6973 C.ar    1  lig        -0.1394
     17 C6         23.2504    7.6410   12.1249 C.ar    1  lig         0.1292
     18 C7         24.6375    4.0583   15.4255 C.2     1  lig         0.9321
     19 C8         24.2369    3.5835   13.0134 C.3     1  lig        -0.0452
     20 C9         23.9552    3.1306   14.4464 C.3     1  lig        -0.0740
     21 N1         22.5048    3.1214   14.6327 N.4     1  lig        -0.8252
     22 O1         25.7807    3.7278   15.7328 O.co2   1  lig        -0.7573
     23 O2         24.0799    5.0782   15.9232 O.co2   1  lig        -0.7573
     24 O3         22.9014    8.8245   11.8106 O.3     1  lig        -0.4913
@<TRIPOS>BOND
     1     1    12    1
     2     2    13    1
     3     3    14    1
     4     4    15    1
     5     5    19    1
     6     6    19    1
     7     7    20    1
     8     8    21    1
     9     9    21    1
    10    10    21    1
    11    11    24    1
    12    12    14   ar
    13    12    16   ar
    14    13    15   ar
    15    13    16   ar
    16    14    17   ar
    17    15    17   ar
    18    16    19    1
    19    17    24    1
    20    18    20    1
    21    18    22    1
    22    18    23    1
    23    19    20    1
    24    20    21    1
@<TRIPOS>SUBSTRUCTURE
     1 lig         1 TEMP              0 ****  ****    0 ROOT


########## Name:		ligand
########## HA_RMSDs:		13.7395
########## HA_RMSDh:		13.7231
########## HA_RMSDm:		11.4549
########## Cluster Size:	1
##########    Grid Score:          -20.225365
##########      Grid_vdw:          -14.546885
##########       Grid_es:           -5.678480
##########    Int_energy:            2.852592

@<TRIPOS>MOLECULE
ligand
 24 24 1 0 0
SMALL
No Charge or Current Charge


@<TRIPOS>ATOM
      1 H1          9.5645    8.8510   24.2188 H       1  lig         0.1340
      2 H2          9.9824    7.6495   20.1448 H       1  lig         0.1340
      3 H3         11.0806   10.7122   23.7876 H       1  lig         0.1475
      4 H4         11.5533    9.4979   19.7151 H       1  lig         0.1475
      5 H5          9.1936    6.0632   22.0599 H       1  lig         0.0877
      6 H6          8.6512    6.7728   23.5475 H       1  lig         0.0877
      7 H7          7.3891    7.3287   20.8143 H       1  lig         0.0966
      8 H8          7.1921    9.1517   22.4344 H       1  lig         0.4431
      9 H9          5.7115    8.4206   22.2716 H       1  lig         0.4431
     10 H10         6.6563    8.0862   23.6020 H       1  lig         0.4431
     11 H11        12.3291   11.3529   20.6208 H       1  lig         0.4214
     12 C1          9.9979    8.9775   23.2299 C.ar    1  lig        -0.0999
     13 C2         10.2398    8.3302   20.9529 C.ar    1  lig        -0.0999
     14 C3         10.8440   10.0235   22.9839 C.ar    1  lig        -0.1787
     15 C4         11.1269    9.3598   20.7036 C.ar    1  lig        -0.1787
     16 C5          9.6968    8.1214   22.2154 C.ar    1  lig        -0.1394
     17 C6         11.4330   10.2082   21.7611 C.ar    1  lig         0.1292
     18 C7          6.5551    5.8494   22.0645 C.2     1  lig         0.9321
     19 C8          8.7407    6.9722   22.4728 C.3     1  lig        -0.0452
     20 C9          7.3377    7.1302   21.8858 C.3     1  lig        -0.0740
     21 N1          6.6954    8.2545   22.5656 N.4     1  lig        -0.8252
     22 O1          6.9628    5.1218   22.9672 O.co2   1  lig        -0.7573
     23 O2          5.5778    5.5222   21.3320 O.co2   1  lig        -0.7573
     24 O3         12.1972   11.2144   21.6032 O.3     1  lig        -0.4913
@<TRIPOS>BOND
     1     1    12    1
     2     2    13    1
     3     3    14    1
     4     4    15    1
     5     5    19    1
     6     6    19    1
     7     7    20    1
     8     8    21    1
     9     9    21    1
    10    10    21    1
    11    11    24    1
    12    12    14   ar
    13    12    16   ar
    14    13    15   ar
    15    13    16   ar
    16    14    17   ar
    17    15    17   ar
    18    16    19    1
    19    17    24    1
    20    18    20    1
    21    18    22    1
    22    18    23    1
    23    19    20    1
    24    20    21    1
@<TRIPOS>SUBSTRUCTURE
     1 lig         1 TEMP              0 ****  ****    0 ROOT


########## Name:		ligand
########## HA_RMSDs:		12.3390
########## HA_RMSDh:		12.2408
########## HA_RMSDm:		8.7031
########## Cluster Size:	1
##########    Grid Score:          -20.223785
##########      Grid_vdw:          -17.481289
##########       Grid_es:           -2.742496
##########    Int_energy:            2.804309

@<TRIPOS>MOLECULE
ligand
 24 24 1 0 0
SMALL
No Charge or Current Charge


@<TRIPOS>ATOM
      1 H1         16.8129   16.4026   27.5791 H       1  lig         0.1340
      2 H2         13.0613   14.5891   28.5022 H       1  lig         0.1340
      3 H3         17.0037   14.9358   25.6398 H       1  lig         0.1475
      4 H4         13.2712   13.0704   26.5738 H       1  lig         0.1475
      5 H5         13.7381   16.5714   29.6154 H       1  lig         0.0877
      6 H6         15.2591   16.0434   30.2623 H       1  lig         0.0877
      7 H7         15.4920   18.1363   28.1336 H       1  lig         0.0966
      8 H8         17.3567   17.2838   29.4690 H       1  lig         0.4431
      9 H9         17.1235   18.8843   29.8392 H       1  lig         0.4431
     10 H10        16.5697   17.7066   30.8789 H       1  lig         0.4431
     11 H11        15.2714   12.2262   25.2285 H       1  lig         0.4214
     12 C1         16.0334   15.6732   27.3739 C.ar    1  lig        -0.0999
     13 C2         13.9405   14.6531   27.8655 C.ar    1  lig        -0.0999
     14 C3         16.1353   14.8532   26.2840 C.ar    1  lig        -0.1787
     15 C4         14.0522   13.7924   26.7902 C.ar    1  lig        -0.1787
     16 C5         14.9369   15.5719   28.1741 C.ar    1  lig        -0.1394
     17 C6         15.1905   13.9029   26.0003 C.ar    1  lig         0.1292
     18 C7         14.4108   18.9214   29.7650 C.2     1  lig         0.9321
     19 C8         14.8041   16.4935   29.3716 C.3     1  lig        -0.0452
     20 C9         15.3695   17.9028   29.1922 C.3     1  lig        -0.0740
     21 N1         16.6691   17.9488   29.8613 N.4     1  lig        -0.8252
     22 O1         14.1040   18.7320   30.9400 O.co2   1  lig        -0.7573
     23 O2         13.9282   19.8783   29.0940 O.co2   1  lig        -0.7573
     24 O3         15.3459   13.1871   24.9588 O.3     1  lig        -0.4913
@<TRIPOS>BOND
     1     1    12    1
     2     2    13    1
     3     3    14    1
     4     4    15    1
     5     5    19    1
     6     6    19    1
     7     7    20    1
     8     8    21    1
     9     9    21    1
    10    10    21    1
    11    11    24    1
    12    12    14   ar
    13    12    16   ar
    14    13    15   ar
    15    13    16   ar
    16    14    17   ar
    17    15    17   ar
    18    16    19    1
    19    17    24    1
    20    18    20    1
    21    18    22    1
    22    18    23    1
    23    19    20    1
    24    20    21    1
@<TRIPOS>SUBSTRUCTURE
     1 lig         1 TEMP              0 ****  ****    0 ROOT


########## Name:		ligand
########## HA_RMSDs:		13.5397
########## HA_RMSDh:		13.5122
########## HA_RMSDm:		11.2395
########## Cluster Size:	1
##########    Grid Score:          -20.213490
##########      Grid_vdw:          -17.647081
##########       Grid_es:           -2.566408
##########    Int_energy:            3.892745

@<TRIPOS>MOLECULE
ligand
 24 24 1 0 0
SMALL
No Charge or Current Charge


@<TRIPOS>ATOM
      1 H1          8.6747    8.9787   24.1317 H       1  lig         0.1340
      2 H2          9.8957    9.5338   20.0800 H       1  lig         0.1340
      3 H3          6.7926    7.6426   23.3435 H       1  lig         0.1475
      4 H4          7.9689    8.2272   19.2743 H       1  lig         0.1475
      5 H5         11.3040    9.4804   23.0665 H       1  lig         0.0877
      6 H6         11.0937   10.6438   21.7965 H       1  lig         0.0877
      7 H7          9.2038   11.5398   23.6257 H       1  lig         0.0966
      8 H8         10.9298   12.8187   22.4542 H       1  lig         0.4431
      9 H9         10.9953   13.1901   24.0700 H       1  lig         0.4431
     10 H10        12.1148   12.1440   23.4167 H       1  lig         0.4431
     11 H11         5.6022    7.1317   21.7133 H       1  lig         0.4214
     12 C1          8.5281    8.8271   23.0653 C.ar    1  lig        -0.0999
     13 C2          9.1946    9.1174   20.7994 C.ar    1  lig        -0.0999
     14 C3          7.4766    8.0737   22.6208 C.ar    1  lig        -0.1787
     15 C4          8.1133    8.3917   20.3373 C.ar    1  lig        -0.1787
     16 C5          9.3891    9.3583   22.1546 C.ar    1  lig        -0.1394
     17 C6          7.2382    7.8767   21.2864 C.ar    1  lig         0.1292
     18 C7         10.5008   10.7160   25.0700 C.2     1  lig         0.9321
     19 C8         10.5715   10.1754   22.6395 C.3     1  lig        -0.0452
     20 C9         10.2548   11.2519   23.6782 C.3     1  lig        -0.0740
     21 N1         11.0989   12.4106   23.3890 N.4     1  lig        -0.8252
     22 O1         11.6458   10.3166   25.2701 O.co2   1  lig        -0.7573
     23 O2          9.6038   10.6467   25.9584 O.co2   1  lig        -0.7573
     24 O3          6.2485    7.1499   20.9494 O.3     1  lig        -0.4913
@<TRIPOS>BOND
     1     1    12    1
     2     2    13    1
     3     3    14    1
     4     4    15    1
     5     5    19    1
     6     6    19    1
     7     7    20    1
     8     8    21    1
     9     9    21    1
    10    10    21    1
    11    11    24    1
    12    12    14   ar
    13    12    16   ar
    14    13    15   ar
    15    13    16   ar
    16    14    17   ar
    17    15    17   ar
    18    16    19    1
    19    17    24    1
    20    18    20    1
    21    18    22    1
    22    18    23    1
    23    19    20    1
    24    20    21    1
@<TRIPOS>SUBSTRUCTURE
     1 lig         1 TEMP              0 ****  ****    0 ROOT


########## Name:		ligand
########## HA_RMSDs:		12.8805
########## HA_RMSDh:		12.8271
########## HA_RMSDm:		10.7431
########## Cluster Size:	3
##########    Grid Score:          -20.209471
##########      Grid_vdw:          -18.992275
##########       Grid_es:           -1.217196
##########    Int_energy:            2.289034

@<TRIPOS>MOLECULE
ligand
 24 24 1 0 0
SMALL
No Charge or Current Charge


@<TRIPOS>ATOM
      1 H1          7.8902    9.5586   23.8404 H       1  lig         0.1340
      2 H2         10.5424    9.2231   20.5134 H       1  lig         0.1340
      3 H3          6.3284    8.0731   22.6990 H       1  lig         0.1475
      4 H4          8.9477    7.7623   19.3335 H       1  lig         0.1475
      5 H5         10.2101   11.4053   22.4961 H       1  lig         0.0877
      6 H6          9.9905   10.5620   23.9965 H       1  lig         0.0877
      7 H7         11.9563    9.3987   22.0075 H       1  lig         0.0966
      8 H8         11.4016    8.2740   24.1085 H       1  lig         0.4431
      9 H9         12.9714    8.8054   24.1864 H       1  lig         0.4431
     10 H10        11.7720    9.6540   24.9712 H       1  lig         0.4431
     11 H11         6.3007    6.4717   21.1500 H       1  lig         0.4214
     12 C1          8.1312    9.1774   22.8513 C.ar    1  lig        -0.0999
     13 C2          9.5977    8.9700   20.9888 C.ar    1  lig        -0.0999
     14 C3          7.2597    8.3398   22.2113 C.ar    1  lig        -0.1787
     15 C4          8.7070    8.1554   20.3161 C.ar    1  lig        -0.1787
     16 C5          9.3028    9.5016   22.2389 C.ar    1  lig        -0.1394
     17 C6          7.5095    7.8553   20.9547 C.ar    1  lig         0.1292
     18 C7         12.6561   11.1754   22.9021 C.2     1  lig         0.9321
     19 C8         10.2860   10.4109   22.9513 C.3     1  lig        -0.0452
     20 C9         11.7487    9.9666   22.9156 C.3     1  lig        -0.0740
     21 N1         11.9867    9.1261   24.0884 N.4     1  lig        -0.8252
     22 O1         12.3377   12.0638   23.6895 O.co2   1  lig        -0.7573
     23 O2         13.6479   11.2934   22.1267 O.co2   1  lig        -0.7573
     24 O3          6.6582    7.0674   20.4296 O.3     1  lig        -0.4913
@<TRIPOS>BOND
     1     1    12    1
     2     2    13    1
     3     3    14    1
     4     4    15    1
     5     5    19    1
     6     6    19    1
     7     7    20    1
     8     8    21    1
     9     9    21    1
    10    10    21    1
    11    11    24    1
    12    12    14   ar
    13    12    16   ar
    14    13    15   ar
    15    13    16   ar
    16    14    17   ar
    17    15    17   ar
    18    16    19    1
    19    17    24    1
    20    18    20    1
    21    18    22    1
    22    18    23    1
    23    19    20    1
    24    20    21    1
@<TRIPOS>SUBSTRUCTURE
     1 lig         1 TEMP              0 ****  ****    0 ROOT


########## Name:		ligand
########## HA_RMSDs:		10.3975
########## HA_RMSDh:		10.3694
########## HA_RMSDm:		8.6528
########## Cluster Size:	1
##########    Grid Score:          -20.204304
##########      Grid_vdw:          -17.457401
##########       Grid_es:           -2.746903
##########    Int_energy:            1.197301

@<TRIPOS>MOLECULE
ligand
 24 24 1 0 0
SMALL
No Charge or Current Charge


@<TRIPOS>ATOM
      1 H1         13.6689   12.3122   24.6292 H       1  lig         0.1340
      2 H2         11.4800   10.2942   21.5711 H       1  lig         0.1340
      3 H3         11.5787   12.6834   25.8301 H       1  lig         0.1475
      4 H4          9.3594   10.7093   22.7541 H       1  lig         0.1475
      5 H5         13.7504   10.5976   21.3060 H       1  lig         0.0877
      6 H6         14.4907   11.9980   22.0141 H       1  lig         0.0877
      7 H7         14.7522   10.0412   24.0386 H       1  lig         0.0966
      8 H8         16.3727   11.7228   23.3085 H       1  lig         0.4431
      9 H9         17.1027   10.2330   23.2844 H       1  lig         0.4431
     10 H10        16.5845   10.9222   21.8593 H       1  lig         0.4431
     11 H11         8.5324   12.0772   24.4349 H       1  lig         0.4214
     12 C1         12.7316   11.9617   24.2045 C.ar    1  lig        -0.0999
     13 C2         11.4921   10.8339   22.5151 C.ar    1  lig        -0.0999
     14 C3         11.5587   12.1637   24.8784 C.ar    1  lig        -0.1787
     15 C4         10.2967   11.0676   23.1677 C.ar    1  lig        -0.1787
     16 C5         12.7023   11.3005   23.0151 C.ar    1  lig        -0.1394
     17 C6         10.3517   11.7618   24.3706 C.ar    1  lig         0.1292
     18 C7         15.0042    8.7735   22.3723 C.2     1  lig         0.9321
     19 C8         14.0010   11.0511   22.2721 C.3     1  lig        -0.0452
     20 C9         15.0139   10.1550   22.9855 C.3     1  lig        -0.0740
     21 N1         16.3270   10.7880   22.8691 N.4     1  lig        -0.8252
     22 O1         14.1313    8.0258   22.8078 O.co2   1  lig        -0.7573
     23 O2         15.8399    8.3908   21.5040 O.co2   1  lig        -0.7573
     24 O3          9.3040   11.9704   25.0634 O.3     1  lig        -0.4913
@<TRIPOS>BOND
     1     1    12    1
     2     2    13    1
     3     3    14    1
     4     4    15    1
     5     5    19    1
     6     6    19    1
     7     7    20    1
     8     8    21    1
     9     9    21    1
    10    10    21    1
    11    11    24    1
    12    12    14   ar
    13    12    16   ar
    14    13    15   ar
    15    13    16   ar
    16    14    17   ar
    17    15    17   ar
    18    16    19    1
    19    17    24    1
    20    18    20    1
    21    18    22    1
    22    18    23    1
    23    19    20    1
    24    20    21    1
@<TRIPOS>SUBSTRUCTURE
     1 lig         1 TEMP              0 ****  ****    0 ROOT


########## Name:		ligand
########## HA_RMSDs:		10.8420
########## HA_RMSDh:		10.7989
########## HA_RMSDm:		9.2054
########## Cluster Size:	2
##########    Grid Score:          -20.199486
##########      Grid_vdw:          -19.644035
##########       Grid_es:           -0.555450
##########    Int_energy:            2.839265

@<TRIPOS>MOLECULE
ligand
 24 24 1 0 0
SMALL
No Charge or Current Charge


@<TRIPOS>ATOM
      1 H1         10.2961    9.2887   21.8820 H       1  lig         0.1340
      2 H2         12.7706   12.2850   23.6469 H       1  lig         0.1340
      3 H3          8.4092   10.1377   23.1734 H       1  lig         0.1475
      4 H4         10.8809   13.1158   24.9915 H       1  lig         0.1475
      5 H5         12.4313    9.7963   20.9514 H       1  lig         0.0877
      6 H6         13.4762   11.0343   21.5730 H       1  lig         0.0877
      7 H7         13.0873    8.2728   22.8347 H       1  lig         0.0966
      8 H8         13.5650   10.0451   24.4525 H       1  lig         0.4431
      9 H9         14.9190    9.1018   24.2796 H       1  lig         0.4431
     10 H10        14.8413   10.5826   23.5208 H       1  lig         0.4431
     11 H11         7.7281   11.4279   24.5732 H       1  lig         0.4214
     12 C1         10.4392   10.1232   22.5639 C.ar    1  lig        -0.0999
     13 C2         11.7985   11.8064   23.5547 C.ar    1  lig        -0.0999
     14 C3          9.3816   10.6047   23.2852 C.ar    1  lig        -0.1787
     15 C4         10.7465   12.2753   24.3181 C.ar    1  lig        -0.1787
     16 C5         11.6554   10.7188   22.7007 C.ar    1  lig        -0.1394
     17 C6          9.5200   11.6373   24.1744 C.ar    1  lig         0.1292
     18 C7         14.7584    8.6568   21.6072 C.2     1  lig         0.9321
     19 C8         12.8287   10.2067   21.8871 C.3     1  lig        -0.0452
     20 C9         13.6910    9.1397   22.5623 C.3     1  lig        -0.0740
     21 N1         14.2722    9.7339   23.7656 N.4     1  lig        -0.8252
     22 O1         14.3539    8.3963   20.4762 O.co2   1  lig        -0.7573
     23 O2         15.9684    8.4970   21.9377 O.co2   1  lig        -0.7573
     24 O3          8.4861   12.0416   24.7981 O.3     1  lig        -0.4913
@<TRIPOS>BOND
     1     1    12    1
     2     2    13    1
     3     3    14    1
     4     4    15    1
     5     5    19    1
     6     6    19    1
     7     7    20    1
     8     8    21    1
     9     9    21    1
    10    10    21    1
    11    11    24    1
    12    12    14   ar
    13    12    16   ar
    14    13    15   ar
    15    13    16   ar
    16    14    17   ar
    17    15    17   ar
    18    16    19    1
    19    17    24    1
    20    18    20    1
    21    18    22    1
    22    18    23    1
    23    19    20    1
    24    20    21    1
@<TRIPOS>SUBSTRUCTURE
     1 lig         1 TEMP              0 ****  ****    0 ROOT


########## Name:		ligand
########## HA_RMSDs:		12.9181
########## HA_RMSDh:		12.8653
########## HA_RMSDm:		11.0684
########## Cluster Size:	1
##########    Grid Score:          -20.193459
##########      Grid_vdw:          -15.618032
##########       Grid_es:           -4.575425
##########    Int_energy:            1.148394

@<TRIPOS>MOLECULE
ligand
 24 24 1 0 0
SMALL
No Charge or Current Charge


@<TRIPOS>ATOM
      1 H1          9.9502    7.8494   23.9726 H       1  lig         0.1340
      2 H2         12.0317    9.8824   20.8501 H       1  lig         0.1340
      3 H3         12.0653    7.5776   25.1564 H       1  lig         0.1475
      4 H4         14.1787    9.5674   22.0166 H       1  lig         0.1475
      5 H5          8.7860    9.3121   22.3388 H       1  lig         0.0877
      6 H6          9.5933    9.9194   20.9282 H       1  lig         0.0877
      7 H7          9.2549    6.9168   21.3322 H       1  lig         0.0966
      8 H8         10.7921    7.7472   19.6192 H       1  lig         0.4431
      9 H9          9.4710    7.0780   18.8710 H       1  lig         0.4431
     10 H10         9.5993    8.7341   18.9952 H       1  lig         0.4431
     11 H11        15.0709    8.7260   23.8230 H       1  lig         0.4214
     12 C1         10.8696    8.2246   23.5303 C.ar    1  lig        -0.0999
     13 C2         12.0494    9.3617   21.8047 C.ar    1  lig        -0.0999
     14 C3         12.0563    8.0784   24.1945 C.ar    1  lig        -0.1787
     15 C4         13.2594    9.1842   22.4480 C.ar    1  lig        -0.1787
     16 C5         10.8622    8.8622   22.3277 C.ar    1  lig        -0.1394
     17 C6         13.2424    8.5129   23.6649 C.ar    1  lig         0.1292
     18 C7          7.5583    7.9308   20.5972 C.2     1  lig         0.9321
     19 C8          9.5474    9.0499   21.5950 C.3     1  lig        -0.0452
     20 C9          9.0545    7.8443   20.7939 C.3     1  lig        -0.0740
     21 N1          9.7672    7.8376   19.5170 N.4     1  lig        -0.8252
     22 O1          6.8926    7.4787   21.5262 O.co2   1  lig        -0.7573
     23 O2          7.0187    8.3977   19.5534 O.co2   1  lig        -0.7573
     24 O3         14.3045    8.3560   24.3496 O.3     1  lig        -0.4913
@<TRIPOS>BOND
     1     1    12    1
     2     2    13    1
     3     3    14    1
     4     4    15    1
     5     5    19    1
     6     6    19    1
     7     7    20    1
     8     8    21    1
     9     9    21    1
    10    10    21    1
    11    11    24    1
    12    12    14   ar
    13    12    16   ar
    14    13    15   ar
    15    13    16   ar
    16    14    17   ar
    17    15    17   ar
    18    16    19    1
    19    17    24    1
    20    18    20    1
    21    18    22    1
    22    18    23    1
    23    19    20    1
    24    20    21    1
@<TRIPOS>SUBSTRUCTURE
     1 lig         1 TEMP              0 ****  ****    0 ROOT


########## Name:		ligand
########## HA_RMSDs:		11.0801
########## HA_RMSDh:		11.0214
########## HA_RMSDm:		9.2350
########## Cluster Size:	1
##########    Grid Score:          -20.192629
##########      Grid_vdw:          -17.089705
##########       Grid_es:           -3.102924
##########    Int_energy:            2.418921

@<TRIPOS>MOLECULE
ligand
 24 24 1 0 0
SMALL
No Charge or Current Charge


@<TRIPOS>ATOM
      1 H1         11.1958   10.3057   24.0517 H       1  lig         0.1340
      2 H2         13.4648    9.1427   20.6291 H       1  lig         0.1340
      3 H3          9.1497    9.9183   22.7820 H       1  lig         0.1475
      4 H4         11.4033    8.7974   19.3253 H       1  lig         0.1475
      5 H5         13.4994    9.8404   24.2632 H       1  lig         0.0877
      6 H6         14.4757    9.2199   22.9700 H       1  lig         0.0877
      7 H7         13.9471   11.9022   22.1966 H       1  lig         0.0966
      8 H8         16.0074   10.6079   21.9382 H       1  lig         0.4431
      9 H9         16.3648   12.0300   22.7146 H       1  lig         0.4431
     10 H10        16.2473   10.6177   23.5899 H       1  lig         0.4431
     11 H11         9.1539    9.3728   19.4238 H       1  lig         0.4214
     12 C1         11.2554    9.9816   23.0158 C.ar    1  lig        -0.0999
     13 C2         12.5002    9.3225   21.0979 C.ar    1  lig        -0.0999
     14 C3         10.1095    9.7584   22.3031 C.ar    1  lig        -0.1787
     15 C4         11.3499    9.1324   20.3563 C.ar    1  lig        -0.1787
     16 C5         12.4574    9.7705   22.4131 C.ar    1  lig        -0.1394
     17 C6         10.1360    9.3737   20.9888 C.ar    1  lig         0.1292
     18 C7         14.1502   12.2026   24.2739 C.2     1  lig         0.9321
     19 C8         13.7332    9.9927   23.2030 C.3     1  lig        -0.0452
     20 C9         14.3870   11.3650   23.0381 C.3     1  lig        -0.0740
     21 N1         15.8133   11.1517   22.7959 N.4     1  lig        -0.8252
     22 O1         12.9748   12.2758   24.6256 O.co2   1  lig        -0.7573
     23 O2         15.0713   12.8121   24.8894 O.co2   1  lig        -0.7573
     24 O3          9.0279    9.1694   20.3956 O.3     1  lig        -0.4913
@<TRIPOS>BOND
     1     1    12    1
     2     2    13    1
     3     3    14    1
     4     4    15    1
     5     5    19    1
     6     6    19    1
     7     7    20    1
     8     8    21    1
     9     9    21    1
    10    10    21    1
    11    11    24    1
    12    12    14   ar
    13    12    16   ar
    14    13    15   ar
    15    13    16   ar
    16    14    17   ar
    17    15    17   ar
    18    16    19    1
    19    17    24    1
    20    18    20    1
    21    18    22    1
    22    18    23    1
    23    19    20    1
    24    20    21    1
@<TRIPOS>SUBSTRUCTURE
     1 lig         1 TEMP              0 ****  ****    0 ROOT


########## Name:		ligand
########## HA_RMSDs:		13.3179
########## HA_RMSDh:		13.2499
########## HA_RMSDm:		11.4602
########## Cluster Size:	1
##########    Grid Score:          -20.181885
##########      Grid_vdw:          -16.533667
##########       Grid_es:           -3.648217
##########    Int_energy:            3.178586

@<TRIPOS>MOLECULE
ligand
 24 24 1 0 0
SMALL
No Charge or Current Charge


@<TRIPOS>ATOM
      1 H1         11.2926   10.6332   21.7756 H       1  lig         0.1340
      2 H2          8.8592    7.8851   23.9532 H       1  lig         0.1340
      3 H3         10.2064    9.9070   19.7161 H       1  lig         0.1475
      4 H4          7.7934    7.1113   21.8713 H       1  lig         0.1475
      5 H5         11.1053    8.8544   24.8418 H       1  lig         0.0877
      6 H6         11.7679   10.2585   24.0671 H       1  lig         0.0877
      7 H7         10.5984   11.3479   25.7242 H       1  lig         0.0966
      8 H8          9.8816    9.2340   26.7263 H       1  lig         0.4431
      9 H9          8.6057   10.2945   26.7487 H       1  lig         0.4431
     10 H10         8.6581    9.0891   25.6002 H       1  lig         0.4431
     11 H11         8.9715    8.5630   18.8039 H       1  lig         0.4214
     12 C1         10.5325    9.8568   21.8098 C.ar    1  lig        -0.0999
     13 C2          9.1603    8.3231   23.0045 C.ar    1  lig        -0.0999
     14 C3          9.9179    9.4515   20.6571 C.ar    1  lig        -0.1787
     15 C4          8.5614    7.8777   21.8416 C.ar    1  lig        -0.1787
     16 C5         10.1602    9.2887   22.9894 C.ar    1  lig        -0.1394
     17 C6          8.9732    8.4598   20.6486 C.ar    1  lig         0.1292
     18 C7          9.0162   11.4659   24.3351 C.2     1  lig         0.9321
     19 C8         10.8195    9.7487   24.2757 C.3     1  lig        -0.0452
     20 C9          9.9689   10.6463   25.1750 C.3     1  lig        -0.0740
     21 N1          9.2544    9.7840   26.1155 N.4     1  lig        -0.8252
     22 O1          9.5148   12.4661   23.8238 O.co2   1  lig        -0.7573
     23 O2          7.7940   11.1778   24.1867 O.co2   1  lig        -0.7573
     24 O3          8.4334    8.1476   19.5384 O.3     1  lig        -0.4913
@<TRIPOS>BOND
     1     1    12    1
     2     2    13    1
     3     3    14    1
     4     4    15    1
     5     5    19    1
     6     6    19    1
     7     7    20    1
     8     8    21    1
     9     9    21    1
    10    10    21    1
    11    11    24    1
    12    12    14   ar
    13    12    16   ar
    14    13    15   ar
    15    13    16   ar
    16    14    17   ar
    17    15    17   ar
    18    16    19    1
    19    17    24    1
    20    18    20    1
    21    18    22    1
    22    18    23    1
    23    19    20    1
    24    20    21    1
@<TRIPOS>SUBSTRUCTURE
     1 lig         1 TEMP              0 ****  ****    0 ROOT


########## Name:		ligand
########## HA_RMSDs:		13.0926
########## HA_RMSDh:		13.0149
########## HA_RMSDm:		10.9939
########## Cluster Size:	3
##########    Grid Score:          -20.180563
##########      Grid_vdw:          -15.844249
##########       Grid_es:           -4.336315
##########    Int_energy:            2.460082

@<TRIPOS>MOLECULE
ligand
 24 24 1 0 0
SMALL
No Charge or Current Charge


@<TRIPOS>ATOM
      1 H1         10.6820    7.8155   20.5166 H       1  lig         0.1340
      2 H2          8.6772    9.3498   23.9579 H       1  lig         0.1340
      3 H3          8.5255    7.1170   19.6164 H       1  lig         0.1475
      4 H4          6.5011    8.6024   23.0775 H       1  lig         0.1475
      5 H5         11.2631    8.6195   23.8587 H       1  lig         0.0877
      6 H6         11.9811    8.6343   22.2792 H       1  lig         0.0877
      7 H7         10.5166   11.0327   23.4925 H       1  lig         0.0966
      8 H8         10.5769   10.9384   21.0483 H       1  lig         0.4431
      9 H9         11.6150   12.1265   21.5619 H       1  lig         0.4431
     10 H10        12.2210   10.6525   21.0774 H       1  lig         0.4431
     11 H11         5.5565    7.6476   21.3578 H       1  lig         0.4214
     12 C1          9.7749    7.9882   21.0903 C.ar    1  lig        -0.0999
     13 C2          8.6356    8.8432   22.9965 C.ar    1  lig        -0.0999
     14 C3          8.5637    7.6024   20.5855 C.ar    1  lig        -0.1787
     15 C4          7.4112    8.4219   22.5143 C.ar    1  lig        -0.1787
     16 C5          9.8166    8.6054   22.3028 C.ar    1  lig        -0.1394
     17 C6          7.3981    7.7768   21.2833 C.ar    1  lig         0.1292
     18 C7         12.6026   10.8737   23.7575 C.2     1  lig         0.9321
     19 C8         11.1529    9.0580   22.8600 C.3     1  lig        -0.0452
     20 C9         11.3520   10.5704   22.9647 C.3     1  lig        -0.0740
     21 N1         11.4322   11.1033   21.6052 N.4     1  lig        -0.8252
     22 O1         13.4823   10.0195   23.6732 O.co2   1  lig        -0.7573
     23 O2         12.7368   11.9025   24.4803 O.co2   1  lig        -0.7573
     24 O3          6.3070    7.4066   20.7411 O.3     1  lig        -0.4913
@<TRIPOS>BOND
     1     1    12    1
     2     2    13    1
     3     3    14    1
     4     4    15    1
     5     5    19    1
     6     6    19    1
     7     7    20    1
     8     8    21    1
     9     9    21    1
    10    10    21    1
    11    11    24    1
    12    12    14   ar
    13    12    16   ar
    14    13    15   ar
    15    13    16   ar
    16    14    17   ar
    17    15    17   ar
    18    16    19    1
    19    17    24    1
    20    18    20    1
    21    18    22    1
    22    18    23    1
    23    19    20    1
    24    20    21    1
@<TRIPOS>SUBSTRUCTURE
     1 lig         1 TEMP              0 ****  ****    0 ROOT


########## Name:		ligand
########## HA_RMSDs:		12.9086
########## HA_RMSDh:		12.8996
########## HA_RMSDm:		11.2839
########## Cluster Size:	1
##########    Grid Score:          -20.174854
##########      Grid_vdw:          -18.830706
##########       Grid_es:           -1.344149
##########    Int_energy:            1.654617

@<TRIPOS>MOLECULE
ligand
 24 24 1 0 0
SMALL
No Charge or Current Charge


@<TRIPOS>ATOM
      1 H1         11.4488    9.2741   22.5028 H       1  lig         0.1340
      2 H2          7.5856   10.0650   24.1353 H       1  lig         0.1340
      3 H3         12.1659   11.4926   23.2190 H       1  lig         0.1475
      4 H4          8.2882   12.3257   24.8170 H       1  lig         0.1475
      5 H5          9.9018    7.6207   22.4534 H       1  lig         0.0877
      6 H6          8.6875    7.5682   23.6917 H       1  lig         0.0877
      7 H7          7.9829    8.9893   21.1142 H       1  lig         0.0966
      8 H8          6.4609    8.9030   23.0280 H       1  lig         0.4431
      9 H9          5.8220    7.9922   21.7970 H       1  lig         0.4431
     10 H10         6.5787    7.2387   23.0753 H       1  lig         0.4431
     11 H11        10.0539   13.6160   24.9775 H       1  lig         0.4214
     12 C1         10.7451    9.9346   23.0029 C.ar    1  lig        -0.0999
     13 C2          8.6007   10.3943   23.9264 C.ar    1  lig        -0.0999
     14 C3         11.1461   11.1771   23.4104 C.ar    1  lig        -0.1787
     15 C4          8.9833   11.6665   24.3067 C.ar    1  lig        -0.1787
     16 C5          9.4668    9.5399   23.2539 C.ar    1  lig        -0.1394
     17 C6         10.2877   12.0524   24.0214 C.ar    1  lig         0.1292
     18 C7          8.1267    6.8998   20.8693 C.2     1  lig         0.9321
     19 C8          9.0201    8.1547   22.8267 C.3     1  lig        -0.0452
     20 C9          7.9299    8.1083   21.7555 C.3     1  lig        -0.0740
     21 N1          6.6372    8.0722   22.4383 N.4     1  lig        -0.8252
     22 O1          8.6744    7.1363   19.7948 O.co2   1  lig        -0.7573
     23 O2          7.7359    5.7378   21.1790 O.co2   1  lig        -0.7573
     24 O3         10.7380   13.1859   24.3870 O.3     1  lig        -0.4913
@<TRIPOS>BOND
     1     1    12    1
     2     2    13    1
     3     3    14    1
     4     4    15    1
     5     5    19    1
     6     6    19    1
     7     7    20    1
     8     8    21    1
     9     9    21    1
    10    10    21    1
    11    11    24    1
    12    12    14   ar
    13    12    16   ar
    14    13    15   ar
    15    13    16   ar
    16    14    17   ar
    17    15    17   ar
    18    16    19    1
    19    17    24    1
    20    18    20    1
    21    18    22    1
    22    18    23    1
    23    19    20    1
    24    20    21    1
@<TRIPOS>SUBSTRUCTURE
     1 lig         1 TEMP              0 ****  ****    0 ROOT


########## Name:		ligand
########## HA_RMSDs:		13.1882
########## HA_RMSDh:		13.1165
########## HA_RMSDm:		11.0409
########## Cluster Size:	2
##########    Grid Score:          -20.173031
##########      Grid_vdw:          -18.493315
##########       Grid_es:           -1.679717
##########    Int_energy:            2.209979

@<TRIPOS>MOLECULE
ligand
 24 24 1 0 0
SMALL
No Charge or Current Charge


@<TRIPOS>ATOM
      1 H1         10.4445   10.0912   21.2984 H       1  lig         0.1340
      2 H2          7.2286    9.5148   24.0445 H       1  lig         0.1340
      3 H3          9.4200    8.4524   19.8106 H       1  lig         0.1475
      4 H4          6.2145    7.8221   22.5696 H       1  lig         0.1475
      5 H5          9.3319   11.9105   23.2727 H       1  lig         0.0877
      6 H6          9.0332   10.9259   24.6699 H       1  lig         0.0877
      7 H7         11.5360   10.4200   23.0207 H       1  lig         0.0966
      8 H8         10.8726    8.8906   24.8116 H       1  lig         0.4431
      9 H9         12.2401    9.7032   25.2835 H       1  lig         0.4431
     10 H10        10.7566   10.1628   25.8858 H       1  lig         0.4431
     11 H11         8.0627    6.7013   19.8254 H       1  lig         0.4214
     12 C1          9.5217    9.5971   21.5916 C.ar    1  lig        -0.0999
     13 C2          7.7152    9.2653   23.1046 C.ar    1  lig        -0.0999
     14 C3          8.9421    8.6817   20.7568 C.ar    1  lig        -0.1787
     15 C4          7.1422    8.3098   22.2873 C.ar    1  lig        -0.1787
     16 C5          8.9130    9.8884   22.7737 C.ar    1  lig        -0.1394
     17 C6          7.7936    8.0164   21.0950 C.ar    1  lig         0.1292
     18 C7         11.6397   12.1362   24.2417 C.2     1  lig         0.9321
     19 C8          9.5360   10.9197   23.6952 C.3     1  lig        -0.0452
     20 C9         11.0421   10.7851   23.9223 C.3     1  lig        -0.0740
     21 N1         11.2437    9.8340   25.0148 N.4     1  lig        -0.8252
     22 O1         12.8341   12.2445   23.9729 O.co2   1  lig        -0.7573
     23 O2         10.9859   13.0793   24.7727 O.co2   1  lig        -0.7573
     24 O3          7.3045    7.1899   20.2590 O.3     1  lig        -0.4913
@<TRIPOS>BOND
     1     1    12    1
     2     2    13    1
     3     3    14    1
     4     4    15    1
     5     5    19    1
     6     6    19    1
     7     7    20    1
     8     8    21    1
     9     9    21    1
    10    10    21    1
    11    11    24    1
    12    12    14   ar
    13    12    16   ar
    14    13    15   ar
    15    13    16   ar
    16    14    17   ar
    17    15    17   ar
    18    16    19    1
    19    17    24    1
    20    18    20    1
    21    18    22    1
    22    18    23    1
    23    19    20    1
    24    20    21    1
@<TRIPOS>SUBSTRUCTURE
     1 lig         1 TEMP              0 ****  ****    0 ROOT


########## Name:		ligand
########## HA_RMSDs:		12.7794
########## HA_RMSDh:		12.7312
########## HA_RMSDm:		10.5709
########## Cluster Size:	1
##########    Grid Score:          -20.133276
##########      Grid_vdw:          -16.119026
##########       Grid_es:           -4.014249
##########    Int_energy:            3.279764

@<TRIPOS>MOLECULE
ligand
 24 24 1 0 0
SMALL
No Charge or Current Charge


@<TRIPOS>ATOM
      1 H1         10.6204    7.9962   23.8406 H       1  lig         0.1340
      2 H2          9.8996    9.8503   20.0645 H       1  lig         0.1340
      3 H3          9.1874    6.1424   23.1632 H       1  lig         0.1475
      4 H4          8.4112    8.0054   19.3935 H       1  lig         0.1475
      5 H5         10.8708   11.1018   21.9140 H       1  lig         0.0877
      6 H6         11.1335   10.4109   23.4838 H       1  lig         0.0877
      7 H7         13.2558   10.9623   22.2227 H       1  lig         0.0966
      8 H8         12.4325   10.2751   20.0234 H       1  lig         0.4431
      9 H9         13.7942    9.3972   20.3813 H       1  lig         0.4431
     10 H10        12.2923    8.6957   20.5444 H       1  lig         0.4431
     11 H11         7.4562    6.1691   20.1526 H       1  lig         0.4214
     12 C1         10.1378    8.0136   22.8667 C.ar    1  lig        -0.0999
     13 C2          9.7279    9.0256   20.7523 C.ar    1  lig        -0.0999
     14 C3          9.3380    6.9729   22.4821 C.ar    1  lig        -0.1787
     15 C4          8.8862    7.9989   20.3694 C.ar    1  lig        -0.1787
     16 C5         10.3312    9.0490   22.0045 C.ar    1  lig        -0.1394
     17 C6          8.6899    6.9633   21.2755 C.ar    1  lig         0.1292
     18 C7         13.3403    9.0159   23.0297 C.2     1  lig         0.9321
     19 C8         11.2354   10.1964   22.4131 C.3     1  lig        -0.0452
     20 C9         12.7193   10.0220   22.0879 C.3     1  lig        -0.0740
     21 N1         12.8213    9.5911   20.6942 N.4     1  lig        -0.8252
     22 O1         13.8704    9.5051   24.0248 O.co2   1  lig        -0.7573
     23 O2         13.3511    7.7707   22.8105 O.co2   1  lig        -0.7573
     24 O3          7.9749    5.9519   20.9806 O.3     1  lig        -0.4913
@<TRIPOS>BOND
     1     1    12    1
     2     2    13    1
     3     3    14    1
     4     4    15    1
     5     5    19    1
     6     6    19    1
     7     7    20    1
     8     8    21    1
     9     9    21    1
    10    10    21    1
    11    11    24    1
    12    12    14   ar
    13    12    16   ar
    14    13    15   ar
    15    13    16   ar
    16    14    17   ar
    17    15    17   ar
    18    16    19    1
    19    17    24    1
    20    18    20    1
    21    18    22    1
    22    18    23    1
    23    19    20    1
    24    20    21    1
@<TRIPOS>SUBSTRUCTURE
     1 lig         1 TEMP              0 ****  ****    0 ROOT


########## Name:		ligand
########## HA_RMSDs:		11.5651
########## HA_RMSDh:		11.5264
########## HA_RMSDm:		9.9510
########## Cluster Size:	1
##########    Grid Score:          -20.111454
##########      Grid_vdw:          -13.932490
##########       Grid_es:           -6.178964
##########    Int_energy:            2.706928

@<TRIPOS>MOLECULE
ligand
 24 24 1 0 0
SMALL
No Charge or Current Charge


@<TRIPOS>ATOM
      1 H1          8.6177   10.8581   25.1078 H       1  lig         0.1340
      2 H2         12.7752   11.7448   24.7271 H       1  lig         0.1340
      3 H3          8.5183   12.3311   27.0492 H       1  lig         0.1475
      4 H4         12.6930   13.1948   26.7170 H       1  lig         0.1475
      5 H5         10.9139    9.2628   23.9447 H       1  lig         0.0877
      6 H6          9.8069   10.2721   23.0693 H       1  lig         0.0877
      7 H7         12.4060   11.5218   22.8733 H       1  lig         0.0966
      8 H8         10.5560   11.6071   21.2742 H       1  lig         0.4431
      9 H9         11.8986   11.0082   20.5050 H       1  lig         0.4431
     10 H10        10.6933    9.9675   20.9936 H       1  lig         0.4431
     11 H11         9.4799   13.6033   28.2879 H       1  lig         0.4214
     12 C1          9.5186   11.3587   25.4534 C.ar    1  lig        -0.0999
     13 C2         11.8336   11.8731   25.2557 C.ar    1  lig        -0.0999
     14 C3          9.4646   12.1896   26.5386 C.ar    1  lig        -0.1787
     15 C4         11.7991   12.6831   26.3746 C.ar    1  lig        -0.1787
     16 C5         10.7066   11.1918   24.8104 C.ar    1  lig        -0.1394
     17 C6         10.5784   12.8215   27.0246 C.ar    1  lig         0.1292
     18 C7         12.8807    9.4955   22.5330 C.2     1  lig         0.9321
     19 C8         10.7710   10.2908   23.5918 C.3     1  lig        -0.0452
     20 C9         11.8697   10.6182   22.5799 C.3     1  lig        -0.0740
     21 N1         11.2305   10.8236   21.2807 N.4     1  lig        -0.8252
     22 O1         13.9136    9.7097   23.1638 O.co2   1  lig        -0.7573
     23 O2         12.7076    8.4292   21.8759 O.co2   1  lig        -0.7573
     24 O3         10.4467   13.5925   28.0294 O.3     1  lig        -0.4913
@<TRIPOS>BOND
     1     1    12    1
     2     2    13    1
     3     3    14    1
     4     4    15    1
     5     5    19    1
     6     6    19    1
     7     7    20    1
     8     8    21    1
     9     9    21    1
    10    10    21    1
    11    11    24    1
    12    12    14   ar
    13    12    16   ar
    14    13    15   ar
    15    13    16   ar
    16    14    17   ar
    17    15    17   ar
    18    16    19    1
    19    17    24    1
    20    18    20    1
    21    18    22    1
    22    18    23    1
    23    19    20    1
    24    20    21    1
@<TRIPOS>SUBSTRUCTURE
     1 lig         1 TEMP              0 ****  ****    0 ROOT


########## Name:		ligand
########## HA_RMSDs:		12.7183
########## HA_RMSDh:		12.6861
########## HA_RMSDm:		10.5392
########## Cluster Size:	5
##########    Grid Score:          -20.111423
##########      Grid_vdw:          -18.957115
##########       Grid_es:           -1.154308
##########    Int_energy:            1.275868

@<TRIPOS>MOLECULE
ligand
 24 24 1 0 0
SMALL
No Charge or Current Charge


@<TRIPOS>ATOM
      1 H1          8.4922    9.8004   23.6430 H       1  lig         0.1340
      2 H2         10.4022    9.1221   19.8870 H       1  lig         0.1340
      3 H3          6.6907    8.3068   22.9557 H       1  lig         0.1475
      4 H4          8.5613    7.6519   19.1668 H       1  lig         0.1475
      5 H5         11.0783   10.9677   21.3277 H       1  lig         0.0877
      6 H6         10.3019   11.3145   22.8401 H       1  lig         0.0877
      7 H7         12.0360    8.8258   22.5567 H       1  lig         0.0966
      8 H8         10.5946    9.1020   24.5145 H       1  lig         0.4431
      9 H9         12.1754    9.2760   24.9873 H       1  lig         0.4431
     10 H10        11.2195   10.6254   24.7877 H       1  lig         0.4431
     11 H11         5.9819    6.9959   21.5802 H       1  lig         0.4214
     12 C1          8.5164    9.3415   22.6579 C.ar    1  lig        -0.0999
     13 C2          9.5672    8.9431   20.5604 C.ar    1  lig        -0.0999
     14 C3          7.5103    8.4992   22.2720 C.ar    1  lig        -0.1787
     15 C4          8.5363    8.1222   20.1447 C.ar    1  lig        -0.1787
     16 C5          9.5475    9.5723   21.7998 C.ar    1  lig        -0.1394
     17 C6          7.4860    7.9183   21.0318 C.ar    1  lig         0.1292
     18 C7         13.0943   10.6304   22.8224 C.2     1  lig         0.9321
     19 C8         10.6797   10.4863   22.2283 C.3     1  lig        -0.0452
     20 C9         11.8320    9.8129   22.9743 C.3     1  lig        -0.0740
     21 N1         11.4383    9.6835   24.3768 N.4     1  lig        -0.8252
     22 O1         13.7988   10.3121   21.8669 O.co2   1  lig        -0.7573
     23 O2         13.4298   11.5493   23.6235 O.co2   1  lig        -0.7573
     24 O3          6.5243    7.1326   20.7503 O.3     1  lig        -0.4913
@<TRIPOS>BOND
     1     1    12    1
     2     2    13    1
     3     3    14    1
     4     4    15    1
     5     5    19    1
     6     6    19    1
     7     7    20    1
     8     8    21    1
     9     9    21    1
    10    10    21    1
    11    11    24    1
    12    12    14   ar
    13    12    16   ar
    14    13    15   ar
    15    13    16   ar
    16    14    17   ar
    17    15    17   ar
    18    16    19    1
    19    17    24    1
    20    18    20    1
    21    18    22    1
    22    18    23    1
    23    19    20    1
    24    20    21    1
@<TRIPOS>SUBSTRUCTURE
     1 lig         1 TEMP              0 ****  ****    0 ROOT


########## Name:		ligand
########## HA_RMSDs:		12.6054
########## HA_RMSDh:		12.5346
########## HA_RMSDm:		10.2995
########## Cluster Size:	3
##########    Grid Score:          -20.051899
##########      Grid_vdw:          -19.161888
##########       Grid_es:           -0.890011
##########    Int_energy:            1.393569

@<TRIPOS>MOLECULE
ligand
 24 24 1 0 0
SMALL
No Charge or Current Charge


@<TRIPOS>ATOM
      1 H1         10.6396    9.1207   19.9238 H       1  lig         0.1340
      2 H2          8.6636   10.0949   23.5792 H       1  lig         0.1340
      3 H3          8.7635    7.6771   19.3365 H       1  lig         0.1475
      4 H4          6.7886    8.5999   23.0151 H       1  lig         0.1475
      5 H5         11.2468   11.1143   21.2480 H       1  lig         0.0877
      6 H6         10.6039   11.3912   22.8356 H       1  lig         0.0877
      7 H7         12.5993    9.2049   22.0673 H       1  lig         0.0966
      8 H8         11.0082    8.4587   23.7698 H       1  lig         0.4431
      9 H9         12.4778    8.7238   24.4930 H       1  lig         0.4431
     10 H10        11.2634    9.8527   24.6515 H       1  lig         0.4431
     11 H11         6.0743    7.1984   21.4951 H       1  lig         0.4214
     12 C1          9.8057    9.0107   20.6124 C.ar    1  lig        -0.0999
     13 C2          8.6825    9.5454   22.6410 C.ar    1  lig        -0.0999
     14 C3          8.7498    8.2060   20.2831 C.ar    1  lig        -0.1787
     15 C4          7.6294    8.7043   22.3366 C.ar    1  lig        -0.1787
     16 C5          9.7793    9.6797   21.7975 C.ar    1  lig        -0.1394
     17 C6          7.6896    8.0176   21.1297 C.ar    1  lig         0.1292
     18 C7         13.2148   10.9354   23.1033 C.2     1  lig         0.9321
     19 C8         10.9349   10.5928   22.1605 C.3     1  lig        -0.0452
     20 C9         12.1563    9.9078   22.7745 C.3     1  lig        -0.0740
     21 N1         11.7104    9.1910   23.9687 N.4     1  lig        -0.8252
     22 O1         14.0279   11.1389   22.2044 O.co2   1  lig        -0.7573
     23 O2         13.2916   11.5237   24.2199 O.co2   1  lig        -0.7573
     24 O3          6.7357    7.2660   20.7469 O.3     1  lig        -0.4913
@<TRIPOS>BOND
     1     1    12    1
     2     2    13    1
     3     3    14    1
     4     4    15    1
     5     5    19    1
     6     6    19    1
     7     7    20    1
     8     8    21    1
     9     9    21    1
    10    10    21    1
    11    11    24    1
    12    12    14   ar
    13    12    16   ar
    14    13    15   ar
    15    13    16   ar
    16    14    17   ar
    17    15    17   ar
    18    16    19    1
    19    17    24    1
    20    18    20    1
    21    18    22    1
    22    18    23    1
    23    19    20    1
    24    20    21    1
@<TRIPOS>SUBSTRUCTURE
     1 lig         1 TEMP              0 ****  ****    0 ROOT


########## Name:		ligand
########## HA_RMSDs:		10.3926
########## HA_RMSDh:		10.2902
########## HA_RMSDm:		8.4777
########## Cluster Size:	1
##########    Grid Score:          -20.050951
##########      Grid_vdw:          -17.112843
##########       Grid_es:           -2.938108
##########    Int_energy:            1.630189

@<TRIPOS>MOLECULE
ligand
 24 24 1 0 0
SMALL
No Charge or Current Charge


@<TRIPOS>ATOM
      1 H1         12.6992   10.4891   21.8102 H       1  lig         0.1340
      2 H2         13.2562   12.3818   25.5948 H       1  lig         0.1340
      3 H3         10.2927   10.8093   22.0449 H       1  lig         0.1475
      4 H4         10.8234   12.6635   25.8612 H       1  lig         0.1475
      5 H5         14.9567   10.5266   24.3357 H       1  lig         0.0877
      6 H6         14.8643   10.6983   22.6116 H       1  lig         0.0877
      7 H7         14.8162   13.3653   23.7522 H       1  lig         0.0966
      8 H8         15.6229   12.6783   21.5468 H       1  lig         0.4431
      9 H9         16.8618   13.4260   22.3587 H       1  lig         0.4431
     10 H10        16.8305   11.7642   22.2483 H       1  lig         0.4431
     11 H11         8.9194   12.3803   24.8309 H       1  lig         0.4214
     12 C1         12.3012   10.9610   22.7050 C.ar    1  lig        -0.0999
     13 C2         12.5888   12.0257   24.8136 C.ar    1  lig        -0.0999
     14 C3         10.9525   11.1467   22.8367 C.ar    1  lig        -0.1787
     15 C4         11.2255   12.1824   24.9753 C.ar    1  lig        -0.1787
     16 C5         13.1257   11.3946   23.6974 C.ar    1  lig        -0.1394
     17 C6         10.4042   11.7135   23.9567 C.ar    1  lig         0.1292
     18 C7         16.3686   12.4393   24.8384 C.2     1  lig         0.9321
     19 C8         14.6245   11.2143   23.5492 C.3     1  lig        -0.0452
     20 C9         15.4596   12.4925   23.6318 C.3     1  lig        -0.0740
     21 N1         16.2199   12.6079   22.3879 N.4     1  lig        -0.8252
     22 O1         15.8776   12.8926   25.8699 O.co2   1  lig        -0.7573
     23 O2         17.5527   11.9975   24.7996 O.co2   1  lig        -0.7573
     24 O3          9.1411   11.8682   24.0001 O.3     1  lig        -0.4913
@<TRIPOS>BOND
     1     1    12    1
     2     2    13    1
     3     3    14    1
     4     4    15    1
     5     5    19    1
     6     6    19    1
     7     7    20    1
     8     8    21    1
     9     9    21    1
    10    10    21    1
    11    11    24    1
    12    12    14   ar
    13    12    16   ar
    14    13    15   ar
    15    13    16   ar
    16    14    17   ar
    17    15    17   ar
    18    16    19    1
    19    17    24    1
    20    18    20    1
    21    18    22    1
    22    18    23    1
    23    19    20    1
    24    20    21    1
@<TRIPOS>SUBSTRUCTURE
     1 lig         1 TEMP              0 ****  ****    0 ROOT


########## Name:		ligand
########## HA_RMSDs:		13.4857
########## HA_RMSDh:		13.4840
########## HA_RMSDm:		11.3700
########## Cluster Size:	1
##########    Grid Score:          -20.049454
##########      Grid_vdw:          -20.129129
##########       Grid_es:            0.079676
##########    Int_energy:            2.964463

@<TRIPOS>MOLECULE
ligand
 24 24 1 0 0
SMALL
No Charge or Current Charge


@<TRIPOS>ATOM
      1 H1          8.2574    9.6460   23.2463 H       1  lig         0.1340
      2 H2          9.9595    8.1281   19.6388 H       1  lig         0.1340
      3 H3         10.1665   11.1469   23.4729 H       1  lig         0.1475
      4 H4         11.9148    9.6058   19.8880 H       1  lig         0.1475
      5 H5          6.9438    8.3443   21.7511 H       1  lig         0.0877
      6 H6          7.5297    7.7507   20.2296 H       1  lig         0.0877
      7 H7          7.8373    6.4925   22.9734 H       1  lig         0.0966
      8 H8         10.0584    6.5740   21.9502 H       1  lig         0.4431
      9 H9          9.5010    5.0124   21.8911 H       1  lig         0.4431
     10 H10         9.4481    5.9608   20.5229 H       1  lig         0.4431
     11 H11        12.7424   11.1974   21.1311 H       1  lig         0.4214
     12 C1          9.0543    9.6227   22.5074 C.ar    1  lig        -0.0999
     13 C2         10.0181    8.7963   20.4948 C.ar    1  lig        -0.0999
     14 C3         10.1234   10.4671   22.6291 C.ar    1  lig        -0.1787
     15 C4         11.1220    9.6165   20.6291 C.ar    1  lig        -0.1787
     16 C5          9.0004    8.7779   21.4415 C.ar    1  lig        -0.1394
     17 C6         11.1623   10.4555   21.7365 C.ar    1  lig         0.1292
     18 C7          6.8947    5.5376   21.3465 C.2     1  lig         0.9321
     19 C8          7.8070    7.8545   21.2856 C.3     1  lig        -0.0452
     20 C9          7.9627    6.4587   21.8902 C.3     1  lig        -0.0740
     21 N1          9.3055    5.9802   21.5637 N.4     1  lig        -0.8252
     22 O1          5.7820    6.0490   21.2418 O.co2   1  lig        -0.7573
     23 O2          7.1044    4.3266   21.0494 O.co2   1  lig        -0.7573
     24 O3         12.1155   11.2824   21.9066 O.3     1  lig        -0.4913
@<TRIPOS>BOND
     1     1    12    1
     2     2    13    1
     3     3    14    1
     4     4    15    1
     5     5    19    1
     6     6    19    1
     7     7    20    1
     8     8    21    1
     9     9    21    1
    10    10    21    1
    11    11    24    1
    12    12    14   ar
    13    12    16   ar
    14    13    15   ar
    15    13    16   ar
    16    14    17   ar
    17    15    17   ar
    18    16    19    1
    19    17    24    1
    20    18    20    1
    21    18    22    1
    22    18    23    1
    23    19    20    1
    24    20    21    1
@<TRIPOS>SUBSTRUCTURE
     1 lig         1 TEMP              0 ****  ****    0 ROOT


########## Name:		ligand
########## HA_RMSDs:		13.2579
########## HA_RMSDh:		13.1855
########## HA_RMSDm:		11.1163
########## Cluster Size:	1
##########    Grid Score:          -20.043592
##########      Grid_vdw:          -16.379244
##########       Grid_es:           -3.664349
##########    Int_energy:            3.441387

@<TRIPOS>MOLECULE
ligand
 24 24 1 0 0
SMALL
No Charge or Current Charge


@<TRIPOS>ATOM
      1 H1          9.3018    7.8797   19.4887 H       1  lig         0.1340
      2 H2          9.4056    9.0773   23.5839 H       1  lig         0.1340
      3 H3          6.9923    7.1581   19.7959 H       1  lig         0.1475
      4 H4          7.0897    8.3046   23.9141 H       1  lig         0.1475
      5 H5         11.5843    8.0874   21.3928 H       1  lig         0.0877
      6 H6         11.0884    9.3562   20.3182 H       1  lig         0.0877
      7 H7         10.6890   10.1816   23.1143 H       1  lig         0.0966
      8 H8         10.8223   11.6343   21.1500 H       1  lig         0.4431
      9 H9         12.0593   12.0227   22.1854 H       1  lig         0.4431
     10 H10        12.3721   11.1016   20.8333 H       1  lig         0.4431
     11 H11         5.6685    6.4184   22.4552 H       1  lig         0.4214
     12 C1          8.8314    7.9725   20.4643 C.ar    1  lig        -0.0999
     13 C2          8.8644    8.6398   22.7482 C.ar    1  lig        -0.0999
     14 C3          7.5347    7.5737   20.6380 C.ar    1  lig        -0.1787
     15 C4          7.5682    8.2034   22.9452 C.ar    1  lig        -0.1787
     16 C5          9.5048    8.5021   21.5221 C.ar    1  lig        -0.1394
     17 C6          6.9093    7.6485   21.8544 C.ar    1  lig         0.1292
     18 C7         12.6878    9.5166   23.0163 C.2     1  lig         0.9321
     19 C8         10.9355    8.9690   21.3329 C.3     1  lig        -0.0452
     20 C9         11.4329   10.0117   22.3346 C.3     1  lig        -0.0740
     21 N1         11.6714   11.2543   21.6012 N.4     1  lig        -0.8252
     22 O1         13.7064    9.5934   22.3328 O.co2   1  lig        -0.7573
     23 O2         12.7008    9.0295   24.1831 O.co2   1  lig        -0.7573
     24 O3          5.6953    7.2729   21.9348 O.3     1  lig        -0.4913
@<TRIPOS>BOND
     1     1    12    1
     2     2    13    1
     3     3    14    1
     4     4    15    1
     5     5    19    1
     6     6    19    1
     7     7    20    1
     8     8    21    1
     9     9    21    1
    10    10    21    1
    11    11    24    1
    12    12    14   ar
    13    12    16   ar
    14    13    15   ar
    15    13    16   ar
    16    14    17   ar
    17    15    17   ar
    18    16    19    1
    19    17    24    1
    20    18    20    1
    21    18    22    1
    22    18    23    1
    23    19    20    1
    24    20    21    1
@<TRIPOS>SUBSTRUCTURE
     1 lig         1 TEMP              0 ****  ****    0 ROOT


########## Name:		ligand
########## HA_RMSDs:		14.6392
########## HA_RMSDh:		14.5618
########## HA_RMSDm:		13.0857
########## Cluster Size:	1
##########    Grid Score:          -20.005289
##########      Grid_vdw:          -14.999485
##########       Grid_es:           -5.005804
##########    Int_energy:            2.687131

@<TRIPOS>MOLECULE
ligand
 24 24 1 0 0
SMALL
No Charge or Current Charge


@<TRIPOS>ATOM
      1 H1         25.4624    6.5731   11.7401 H       1  lig         0.1340
      2 H2         25.4951    5.1795   15.7740 H       1  lig         0.1340
      3 H3         27.2651    8.1186   12.2976 H       1  lig         0.1475
      4 H4         27.2815    6.7729   16.3562 H       1  lig         0.1475
      5 H5         24.6882    3.9966   12.8136 H       1  lig         0.0877
      6 H6         23.8433    4.3478   14.2878 H       1  lig         0.0877
      7 H7         23.4357    5.8576   11.6560 H       1  lig         0.0966
      8 H8         23.0343    7.1892   13.6690 H       1  lig         0.4431
      9 H9         21.5742    6.8274   12.9690 H       1  lig         0.4431
     10 H10        22.0816    5.9769   14.3083 H       1  lig         0.4431
     11 H11        28.5626    8.8122   13.6819 H       1  lig         0.4214
     12 C1         25.8473    6.6112   12.7561 C.ar    1  lig        -0.0999
     13 C2         25.8880    5.8442   15.0083 C.ar    1  lig        -0.0999
     14 C3         26.8619    7.4730   13.0701 C.ar    1  lig        -0.1787
     15 C4         26.8853    6.7390   15.3463 C.ar    1  lig        -0.1787
     16 C5         25.3510    5.7965   13.7270 C.ar    1  lig        -0.1394
     17 C6         27.3612    7.5733   14.3417 C.ar    1  lig         0.1292
     18 C7         22.1260    4.2900   12.1799 C.2     1  lig         0.9321
     19 C8         24.2419    4.8208   13.3822 C.3     1  lig        -0.0452
     20 C9         23.0764    5.3963   12.5770 C.3     1  lig        -0.0740
     21 N1         22.4162    6.4026   13.4078 N.4     1  lig        -0.8252
     22 O1         21.9333    3.4435   13.0499 O.co2   1  lig        -0.7573
     23 O2         21.5894    4.2091   11.0379 O.co2   1  lig        -0.7573
     24 O3         28.3171    8.3872   14.5541 O.3     1  lig        -0.4913
@<TRIPOS>BOND
     1     1    12    1
     2     2    13    1
     3     3    14    1
     4     4    15    1
     5     5    19    1
     6     6    19    1
     7     7    20    1
     8     8    21    1
     9     9    21    1
    10    10    21    1
    11    11    24    1
    12    12    14   ar
    13    12    16   ar
    14    13    15   ar
    15    13    16   ar
    16    14    17   ar
    17    15    17   ar
    18    16    19    1
    19    17    24    1
    20    18    20    1
    21    18    22    1
    22    18    23    1
    23    19    20    1
    24    20    21    1
@<TRIPOS>SUBSTRUCTURE
     1 lig         1 TEMP              0 ****  ****    0 ROOT


########## Name:		ligand
########## HA_RMSDs:		11.5078
########## HA_RMSDh:		11.4278
########## HA_RMSDm:		8.7803
########## Cluster Size:	2
##########    Grid Score:          -19.996908
##########      Grid_vdw:          -16.993505
##########       Grid_es:           -3.003403
##########    Int_energy:            1.650381

@<TRIPOS>MOLECULE
ligand
 24 24 1 0 0
SMALL
No Charge or Current Charge


@<TRIPOS>ATOM
      1 H1         14.7677   13.4656   26.5688 H       1  lig         0.1340
      2 H2         13.3785   16.3046   29.4370 H       1  lig         0.1340
      3 H3         16.0725   15.2314   25.5066 H       1  lig         0.1475
      4 H4         14.6545   18.1035   28.3394 H       1  lig         0.1475
      5 H5         13.6840   12.7307   28.5360 H       1  lig         0.0877
      6 H6         13.2037   13.7931   29.8210 H       1  lig         0.0877
      7 H7         11.2624   14.5399   28.1717 H       1  lig         0.0966
      8 H8         11.0118   13.2690   30.2475 H       1  lig         0.4431
      9 H9         10.0043   12.6201   29.0999 H       1  lig         0.4431
     10 H10        11.4412   11.8598   29.4629 H       1  lig         0.4431
     11 H11        16.5759   17.1883   25.4352 H       1  lig         0.4214
     12 C1         14.7291   14.4781   26.9627 C.ar    1  lig        -0.0999
     13 C2         13.9732   16.0762   28.5556 C.ar    1  lig        -0.0999
     14 C3         15.4640   15.4690   26.3723 C.ar    1  lig        -0.1787
     15 C4         14.6800   17.0933   27.9432 C.ar    1  lig        -0.1787
     16 C5         13.9744   14.7794   28.0547 C.ar    1  lig        -0.1394
     17 C6         15.4271   16.7635   26.8185 C.ar    1  lig         0.1292
     18 C7         11.6390   12.8648   26.9473 C.2     1  lig         0.9321
     19 C8         13.1746   13.6818   28.7303 C.3     1  lig        -0.0452
     20 C9         11.7158   13.5547   28.2901 C.3     1  lig        -0.0740
     21 N1         11.0033   12.8047   29.3237 N.4     1  lig        -0.8252
     22 O1         11.7976   11.6467   26.9875 O.co2   1  lig        -0.7573
     23 O2         11.4595   13.4800   25.8573 O.co2   1  lig        -0.7573
     24 O3         16.1514   17.6282   26.2276 O.3     1  lig        -0.4913
@<TRIPOS>BOND
     1     1    12    1
     2     2    13    1
     3     3    14    1
     4     4    15    1
     5     5    19    1
     6     6    19    1
     7     7    20    1
     8     8    21    1
     9     9    21    1
    10    10    21    1
    11    11    24    1
    12    12    14   ar
    13    12    16   ar
    14    13    15   ar
    15    13    16   ar
    16    14    17   ar
    17    15    17   ar
    18    16    19    1
    19    17    24    1
    20    18    20    1
    21    18    22    1
    22    18    23    1
    23    19    20    1
    24    20    21    1
@<TRIPOS>SUBSTRUCTURE
     1 lig         1 TEMP              0 ****  ****    0 ROOT


########## Name:		ligand
########## HA_RMSDs:		13.3613
########## HA_RMSDh:		13.2672
########## HA_RMSDm:		10.9989
########## Cluster Size:	1
##########    Grid Score:          -19.954544
##########      Grid_vdw:          -17.045151
##########       Grid_es:           -2.909393
##########    Int_energy:            3.388200

@<TRIPOS>MOLECULE
ligand
 24 24 1 0 0
SMALL
No Charge or Current Charge


@<TRIPOS>ATOM
      1 H1          9.8164    9.2110   19.8027 H       1  lig         0.1340
      2 H2          8.9601    9.1374   23.9832 H       1  lig         0.1340
      3 H3          7.7426    7.9942   19.3933 H       1  lig         0.1475
      4 H4          6.8893    7.8648   23.5813 H       1  lig         0.1475
      5 H5         11.6391    9.2869   22.1584 H       1  lig         0.0877
      6 H6         11.0198   10.6948   21.3554 H       1  lig         0.0877
      7 H7          9.8678   10.8531   23.9384 H       1  lig         0.0966
      8 H8         10.7804   12.6499   22.5507 H       1  lig         0.4431
      9 H9         11.4973   12.7142   24.0456 H       1  lig         0.4431
     10 H10        12.3264   12.0564   22.7594 H       1  lig         0.4431
     11 H11         5.4045    7.5741   21.7304 H       1  lig         0.4214
     12 C1          9.1878    8.9168   20.6394 C.ar    1  lig        -0.0999
     13 C2          8.6866    8.8704   22.9652 C.ar    1  lig        -0.0999
     14 C3          8.0217    8.2391   20.4123 C.ar    1  lig        -0.1787
     15 C4          7.5267    8.1507   22.7506 C.ar    1  lig        -0.1787
     16 C5          9.5289    9.2300   21.9194 C.ar    1  lig        -0.1394
     17 C6          7.2111    7.8265   21.4364 C.ar    1  lig         0.1292
     18 C7         11.7370   10.0475   24.4898 C.2     1  lig         0.9321
     19 C8         10.8085   10.0021   22.1790 C.3     1  lig        -0.0452
     20 C9         10.8622   10.7769   23.4961 C.3     1  lig        -0.0740
     21 N1         11.3763   12.1145   23.2043 N.4     1  lig        -0.8252
     22 O1         11.1234    9.3741   25.3148 O.co2   1  lig        -0.7573
     23 O2         12.9981   10.1378   24.5056 O.co2   1  lig        -0.7573
     24 O3          6.1330    7.2144   21.1459 O.3     1  lig        -0.4913
@<TRIPOS>BOND
     1     1    12    1
     2     2    13    1
     3     3    14    1
     4     4    15    1
     5     5    19    1
     6     6    19    1
     7     7    20    1
     8     8    21    1
     9     9    21    1
    10    10    21    1
    11    11    24    1
    12    12    14   ar
    13    12    16   ar
    14    13    15   ar
    15    13    16   ar
    16    14    17   ar
    17    15    17   ar
    18    16    19    1
    19    17    24    1
    20    18    20    1
    21    18    22    1
    22    18    23    1
    23    19    20    1
    24    20    21    1
@<TRIPOS>SUBSTRUCTURE
     1 lig         1 TEMP              0 ****  ****    0 ROOT


########## Name:		ligand
########## HA_RMSDs:		10.9816
########## HA_RMSDh:		10.8915
########## HA_RMSDm:		8.2338
########## Cluster Size:	1
##########    Grid Score:          -19.944931
##########      Grid_vdw:          -18.010345
##########       Grid_es:           -1.934585
##########    Int_energy:            2.756103

@<TRIPOS>MOLECULE
ligand
 24 24 1 0 0
SMALL
No Charge or Current Charge


@<TRIPOS>ATOM
      1 H1         18.9089   15.6851   28.1335 H       1  lig         0.1340
      2 H2         15.5905   14.3564   25.8014 H       1  lig         0.1340
      3 H3         20.3991   14.4442   26.6541 H       1  lig         0.1475
      4 H4         17.0851   13.0605   24.3331 H       1  lig         0.1475
      5 H5         15.3280   15.2555   28.1422 H       1  lig         0.0877
      6 H6         16.6629   15.9833   28.9782 H       1  lig         0.0877
      7 H7         14.7106   17.3119   27.4203 H       1  lig         0.0966
      8 H8         16.0225   16.6997   25.4478 H       1  lig         0.4431
      9 H9         16.1654   18.3338   25.6971 H       1  lig         0.4431
     10 H10        17.4058   17.3176   26.1482 H       1  lig         0.4431
     11 H11        19.3120   13.0118   23.7696 H       1  lig         0.4214
     12 C1         18.4961   15.1094   27.3089 C.ar    1  lig        -0.0999
     13 C2         16.6615   14.3627   25.9901 C.ar    1  lig        -0.0999
     14 C3         19.3299   14.4171   26.4745 C.ar    1  lig        -0.1787
     15 C4         17.4908   13.6274   25.1650 C.ar    1  lig        -0.1787
     16 C5         17.1558   15.0798   27.0736 C.ar    1  lig        -0.1394
     17 C6         18.8532   13.6585   25.4384 C.ar    1  lig         0.1292
     18 C7         16.2791   18.3168   28.4086 C.2     1  lig         0.9321
     19 C8         16.2255   15.8638   27.9796 C.3     1  lig        -0.0452
     20 C9         15.7982   17.2387   27.4647 C.3     1  lig        -0.0740
     21 N1         16.3590   17.4053   26.1244 N.4     1  lig        -0.8252
     22 O1         15.4907   18.5989   29.3083 O.co2   1  lig        -0.7573
     23 O2         17.3863   18.9135   28.2785 O.co2   1  lig        -0.7573
     24 O3         19.6920   13.0549   24.6945 O.3     1  lig        -0.4913
@<TRIPOS>BOND
     1     1    12    1
     2     2    13    1
     3     3    14    1
     4     4    15    1
     5     5    19    1
     6     6    19    1
     7     7    20    1
     8     8    21    1
     9     9    21    1
    10    10    21    1
    11    11    24    1
    12    12    14   ar
    13    12    16   ar
    14    13    15   ar
    15    13    16   ar
    16    14    17   ar
    17    15    17   ar
    18    16    19    1
    19    17    24    1
    20    18    20    1
    21    18    22    1
    22    18    23    1
    23    19    20    1
    24    20    21    1
@<TRIPOS>SUBSTRUCTURE
     1 lig         1 TEMP              0 ****  ****    0 ROOT


########## Name:		ligand
########## HA_RMSDs:		9.8976
########## HA_RMSDh:		9.8693
########## HA_RMSDm:		7.8764
########## Cluster Size:	1
##########    Grid Score:          -19.934107
##########      Grid_vdw:          -14.588502
##########       Grid_es:           -5.345604
##########    Int_energy:            4.523919

@<TRIPOS>MOLECULE
ligand
 24 24 1 0 0
SMALL
No Charge or Current Charge


@<TRIPOS>ATOM
      1 H1         17.5943   16.0949   26.4146 H       1  lig         0.1340
      2 H2         14.4236   13.4043   27.3756 H       1  lig         0.1340
      3 H3         16.2825   17.9211   27.3596 H       1  lig         0.1475
      4 H4         13.0727   15.2523   28.2863 H       1  lig         0.1475
      5 H5         17.9269   13.8575   26.1109 H       1  lig         0.0877
      6 H6         16.9867   12.6798   26.9710 H       1  lig         0.0877
      7 H7         17.1382   12.2307   24.5007 H       1  lig         0.0966
      8 H8         17.0678   14.5751   23.8037 H       1  lig         0.4431
      9 H9         15.8203   13.7631   23.0706 H       1  lig         0.4431
     10 H10        15.5140   14.7273   24.3939 H       1  lig         0.4431
     11 H11        13.0269   17.4640   28.4554 H       1  lig         0.4214
     12 C1         16.6032   15.8978   26.8154 C.ar    1  lig        -0.0999
     13 C2         14.8260   14.4146   27.3670 C.ar    1  lig        -0.0999
     14 C3         15.8677   16.9191   27.3509 C.ar    1  lig        -0.1787
     15 C4         14.0580   15.4453   27.8740 C.ar    1  lig        -0.1787
     16 C5         16.0819   14.6404   26.8154 C.ar    1  lig        -0.1394
     17 C6         14.6052   16.7227   27.8444 C.ar    1  lig         0.1292
     18 C7         15.1291   12.1427   25.1352 C.2     1  lig         0.9321
     19 C8         16.9001   13.4975   26.2452 C.3     1  lig        -0.0452
     20 C9         16.4052   12.9230   24.9174 C.3     1  lig        -0.0740
     21 N1         16.2037   14.0413   23.9968 N.4     1  lig        -0.8252
     22 O1         15.1947   11.2894   26.0173 O.co2   1  lig        -0.7573
     23 O2         14.0798   12.3185   24.4518 O.co2   1  lig        -0.7573
     24 O3         13.9880   17.7192   28.3418 O.3     1  lig        -0.4913
@<TRIPOS>BOND
     1     1    12    1
     2     2    13    1
     3     3    14    1
     4     4    15    1
     5     5    19    1
     6     6    19    1
     7     7    20    1
     8     8    21    1
     9     9    21    1
    10    10    21    1
    11    11    24    1
    12    12    14   ar
    13    12    16   ar
    14    13    15   ar
    15    13    16   ar
    16    14    17   ar
    17    15    17   ar
    18    16    19    1
    19    17    24    1
    20    18    20    1
    21    18    22    1
    22    18    23    1
    23    19    20    1
    24    20    21    1
@<TRIPOS>SUBSTRUCTURE
     1 lig         1 TEMP              0 ****  ****    0 ROOT


########## Name:		ligand
########## HA_RMSDs:		13.3163
########## HA_RMSDh:		13.2533
########## HA_RMSDm:		11.5727
########## Cluster Size:	2
##########    Grid Score:          -19.932381
##########      Grid_vdw:          -19.292225
##########       Grid_es:           -0.640156
##########    Int_energy:            2.542477

@<TRIPOS>MOLECULE
ligand
 24 24 1 0 0
SMALL
No Charge or Current Charge


@<TRIPOS>ATOM
      1 H1          7.6580    9.8051   23.9032 H       1  lig         0.1340
      2 H2         11.3589   11.7218   22.9839 H       1  lig         0.1340
      3 H3          8.1299    8.1467   22.1782 H       1  lig         0.1475
      4 H4         11.8184   10.0792   21.2063 H       1  lig         0.1475
      5 H5          9.7948   12.7907   24.4033 H       1  lig         0.0877
      6 H6          8.1514   12.2575   24.5629 H       1  lig         0.0877
      7 H7         10.2657   10.7011   26.0672 H       1  lig         0.0966
      8 H8          7.9057   10.0551   26.0644 H       1  lig         0.4431
      9 H9          8.3133   10.5795   27.5848 H       1  lig         0.4431
     10 H10         7.4632   11.5848   26.5644 H       1  lig         0.4431
     11 H11         9.3260    7.5428   20.6563 H       1  lig         0.4214
     12 C1          8.5695    9.8803   23.3157 C.ar    1  lig        -0.0999
     13 C2         10.6406   10.9283   22.7914 C.ar    1  lig        -0.0999
     14 C3          8.8393    8.9485   22.3514 C.ar    1  lig        -0.1787
     15 C4         10.9042   10.0158   21.7878 C.ar    1  lig        -0.1787
     16 C5          9.4674   10.8793   23.5356 C.ar    1  lig        -0.1394
     17 C6          9.9623    9.0171   21.5702 C.ar    1  lig         0.1292
     18 C7          9.9536   12.6228   26.8775 C.2     1  lig         0.9321
     19 C8          9.1879   11.9036   24.6190 C.3     1  lig        -0.0452
     20 C9          9.4738   11.4514   26.0514 C.3     1  lig        -0.0740
     21 N1          8.2411   10.8790   26.5913 N.4     1  lig        -0.8252
     22 O1         10.9812   13.1548   26.4635 O.co2   1  lig        -0.7573
     23 O2          9.3747   13.0161   27.9305 O.co2   1  lig        -0.7573
     24 O3         10.1534    8.1040   20.7036 O.3     1  lig        -0.4913
@<TRIPOS>BOND
     1     1    12    1
     2     2    13    1
     3     3    14    1
     4     4    15    1
     5     5    19    1
     6     6    19    1
     7     7    20    1
     8     8    21    1
     9     9    21    1
    10    10    21    1
    11    11    24    1
    12    12    14   ar
    13    12    16   ar
    14    13    15   ar
    15    13    16   ar
    16    14    17   ar
    17    15    17   ar
    18    16    19    1
    19    17    24    1
    20    18    20    1
    21    18    22    1
    22    18    23    1
    23    19    20    1
    24    20    21    1
@<TRIPOS>SUBSTRUCTURE
     1 lig         1 TEMP              0 ****  ****    0 ROOT


########## Name:		ligand
########## HA_RMSDs:		15.2496
########## HA_RMSDh:		15.1904
########## HA_RMSDm:		12.0246
########## Cluster Size:	1
##########    Grid Score:          -19.915703
##########      Grid_vdw:          -16.319675
##########       Grid_es:           -3.596027
##########    Int_energy:            3.831732

@<TRIPOS>MOLECULE
ligand
 24 24 1 0 0
SMALL
No Charge or Current Charge


@<TRIPOS>ATOM
      1 H1         25.7798    6.6224   13.5115 H       1  lig         0.1340
      2 H2         22.7437    3.7822   12.5467 H       1  lig         0.1340
      3 H3         27.3828    5.2820   12.2536 H       1  lig         0.1475
      4 H4         24.3683    2.3978   11.3167 H       1  lig         0.1475
      5 H5         22.3880    5.4377   14.2753 H       1  lig         0.0877
      6 H6         23.6193    6.5463   14.7906 H       1  lig         0.0877
      7 H7         21.7320    7.7332   13.7063 H       1  lig         0.0966
      8 H8         21.1289    5.9305   12.1658 H       1  lig         0.4431
      9 H9         21.4026    7.3121   11.2888 H       1  lig         0.4431
     10 H10        22.5676    6.1228   11.3418 H       1  lig         0.4431
     11 H11        27.7100    3.6923   11.0412 H       1  lig         0.4214
     12 C1         25.4591    5.6964   13.0411 C.ar    1  lig        -0.0999
     13 C2         23.7806    4.1039   12.4849 C.ar    1  lig        -0.0999
     14 C3         26.3547    4.9456   12.3305 C.ar    1  lig        -0.1787
     15 C4         24.6856    3.3172   11.7984 C.ar    1  lig        -0.1787
     16 C5         24.1677    5.2747   13.1267 C.ar    1  lig        -0.1394
     17 C6         26.0019    3.7600   11.7422 C.ar    1  lig         0.1292
     18 C7         23.5073    8.2755   12.7057 C.2     1  lig         0.9321
     19 C8         23.1622    6.1131   13.8927 C.3     1  lig        -0.0452
     20 C9         22.4870    7.2319   13.0988 C.3     1  lig        -0.0740
     21 N1         21.8551    6.6266   11.9271 N.4     1  lig        -0.8252
     22 O1         23.5389    9.2623   13.4377 O.co2   1  lig        -0.7573
     23 O2         24.2534    8.1725   11.6901 O.co2   1  lig        -0.7573
     24 O3         26.8870    3.1244   11.0834 O.3     1  lig        -0.4913
@<TRIPOS>BOND
     1     1    12    1
     2     2    13    1
     3     3    14    1
     4     4    15    1
     5     5    19    1
     6     6    19    1
     7     7    20    1
     8     8    21    1
     9     9    21    1
    10    10    21    1
    11    11    24    1
    12    12    14   ar
    13    12    16   ar
    14    13    15   ar
    15    13    16   ar
    16    14    17   ar
    17    15    17   ar
    18    16    19    1
    19    17    24    1
    20    18    20    1
    21    18    22    1
    22    18    23    1
    23    19    20    1
    24    20    21    1
@<TRIPOS>SUBSTRUCTURE
     1 lig         1 TEMP              0 ****  ****    0 ROOT


########## Name:		ligand
########## HA_RMSDs:		12.4605
########## HA_RMSDh:		12.4372
########## HA_RMSDm:		10.3998
########## Cluster Size:	1
##########    Grid Score:          -19.907047
##########      Grid_vdw:          -16.830902
##########       Grid_es:           -3.076145
##########    Int_energy:            3.937150

@<TRIPOS>MOLECULE
ligand
 24 24 1 0 0
SMALL
No Charge or Current Charge


@<TRIPOS>ATOM
      1 H1          9.8928   11.5597   24.4074 H       1  lig         0.1340
      2 H2         10.1712    9.0846   20.9415 H       1  lig         0.1340
      3 H3          7.7578   10.5088   24.9420 H       1  lig         0.1475
      4 H4          7.9916    8.0543   21.4485 H       1  lig         0.1475
      5 H5         11.4011   11.5149   21.3166 H       1  lig         0.0877
      6 H6         11.7068   11.8695   22.9874 H       1  lig         0.0877
      7 H7         13.5986   10.6187   22.5892 H       1  lig         0.0966
      8 H8         13.0273   10.3496   20.2253 H       1  lig         0.4431
      9 H9         13.6134    8.9076   20.7998 H       1  lig         0.4431
     10 H10        11.9725    9.1109   20.5980 H       1  lig         0.4431
     11 H11         6.5249    8.8507   24.5777 H       1  lig         0.4214
     12 C1          9.4848   10.7980   23.7478 C.ar    1  lig        -0.0999
     13 C2          9.6228    9.4029   21.8250 C.ar    1  lig        -0.0999
     14 C3          8.2904   10.2031   24.0481 C.ar    1  lig        -0.1787
     15 C4          8.3981    8.8238   22.0971 C.ar    1  lig        -0.1787
     16 C5         10.1539   10.4042   22.6297 C.ar    1  lig        -0.1394
     17 C6          7.7260    9.2573   23.2339 C.ar    1  lig         0.1292
     18 C7         12.4758    8.9658   23.2632 C.2     1  lig         0.9321
     19 C8         11.4907   11.0416   22.3014 C.3     1  lig        -0.0452
     20 C9         12.6917   10.0955   22.2824 C.3     1  lig        -0.0740
     21 N1         12.8463    9.6008   20.9149 N.4     1  lig        -0.8252
     22 O1         12.6447    9.2713   24.4416 O.co2   1  lig        -0.7573
     23 O2         12.1773    7.7877   22.9142 O.co2   1  lig        -0.7573
     24 O3          6.6192    8.7366   23.5879 O.3     1  lig        -0.4913
@<TRIPOS>BOND
     1     1    12    1
     2     2    13    1
     3     3    14    1
     4     4    15    1
     5     5    19    1
     6     6    19    1
     7     7    20    1
     8     8    21    1
     9     9    21    1
    10    10    21    1
    11    11    24    1
    12    12    14   ar
    13    12    16   ar
    14    13    15   ar
    15    13    16   ar
    16    14    17   ar
    17    15    17   ar
    18    16    19    1
    19    17    24    1
    20    18    20    1
    21    18    22    1
    22    18    23    1
    23    19    20    1
    24    20    21    1
@<TRIPOS>SUBSTRUCTURE
     1 lig         1 TEMP              0 ****  ****    0 ROOT


########## Name:		ligand
########## HA_RMSDs:		12.0290
########## HA_RMSDh:		12.0085
########## HA_RMSDm:		9.8614
########## Cluster Size:	1
##########    Grid Score:          -19.894276
##########      Grid_vdw:          -17.149307
##########       Grid_es:           -2.744969
##########    Int_energy:            2.161595

@<TRIPOS>MOLECULE
ligand
 24 24 1 0 0
SMALL
No Charge or Current Charge


@<TRIPOS>ATOM
      1 H1         11.6684   12.5675   24.5183 H       1  lig         0.1340
      2 H2          8.8045    9.9552   22.7324 H       1  lig         0.1340
      3 H3         10.1437   12.8985   26.3930 H       1  lig         0.1475
      4 H4          7.2391   10.3242   24.5986 H       1  lig         0.1475
      5 H5         10.6727   10.7649   21.4619 H       1  lig         0.0877
      6 H6         11.7698   11.9716   22.0544 H       1  lig         0.0877
      7 H7         12.9639   10.2028   23.4126 H       1  lig         0.0966
      8 H8         13.6534   10.7984   21.1418 H       1  lig         0.4431
      9 H9         13.9002    9.1729   21.3650 H       1  lig         0.4431
     10 H10        12.5757    9.6965   20.5013 H       1  lig         0.4431
     11 H11         7.0024   11.3980   26.4860 H       1  lig         0.4214
     12 C1         10.6991   12.0754   24.5205 C.ar    1  lig        -0.0999
     13 C2          9.0909   10.6166   23.5467 C.ar    1  lig        -0.0999
     14 C3          9.8444   12.2549   25.5730 C.ar    1  lig        -0.1787
     15 C4          8.2033   10.8224   24.5855 C.ar    1  lig        -0.1787
     16 C5         10.3226   11.2593   23.4982 C.ar    1  lig        -0.1394
     17 C6          8.6038   11.6755   25.6072 C.ar    1  lig         0.1292
     18 C7         11.6843    8.6294   22.8346 C.2     1  lig         0.9321
     19 C8         11.2737   11.0355   22.3380 C.3     1  lig        -0.0452
     20 C9         12.3407    9.9610   22.5504 C.3     1  lig        -0.0740
     21 N1         13.1659    9.9094   21.3441 N.4     1  lig        -0.8252
     22 O1         11.5401    8.3739   24.0282 O.co2   1  lig        -0.7573
     23 O2         11.3354    7.8176   21.9302 O.co2   1  lig        -0.7573
     24 O3          7.8701   11.8760   26.6284 O.3     1  lig        -0.4913
@<TRIPOS>BOND
     1     1    12    1
     2     2    13    1
     3     3    14    1
     4     4    15    1
     5     5    19    1
     6     6    19    1
     7     7    20    1
     8     8    21    1
     9     9    21    1
    10    10    21    1
    11    11    24    1
    12    12    14   ar
    13    12    16   ar
    14    13    15   ar
    15    13    16   ar
    16    14    17   ar
    17    15    17   ar
    18    16    19    1
    19    17    24    1
    20    18    20    1
    21    18    22    1
    22    18    23    1
    23    19    20    1
    24    20    21    1
@<TRIPOS>SUBSTRUCTURE
     1 lig         1 TEMP              0 ****  ****    0 ROOT


########## Name:		ligand
########## HA_RMSDs:		12.5529
########## HA_RMSDh:		12.5156
########## HA_RMSDm:		10.3587
########## Cluster Size:	1
##########    Grid Score:          -19.884556
##########      Grid_vdw:          -15.911830
##########       Grid_es:           -3.972725
##########    Int_energy:            3.173138

@<TRIPOS>MOLECULE
ligand
 24 24 1 0 0
SMALL
No Charge or Current Charge


@<TRIPOS>ATOM
      1 H1         10.1950    8.9029   24.0105 H       1  lig         0.1340
      2 H2         10.2864    9.9037   19.8625 H       1  lig         0.1340
      3 H3          8.4593    7.2559   23.5377 H       1  lig         0.1475
      4 H4          8.4984    8.2774   19.3858 H       1  lig         0.1475
      5 H5         11.2609   11.3955   21.5960 H       1  lig         0.0877
      6 H6         11.3252   10.9409   23.2693 H       1  lig         0.0877
      7 H7         13.5719   10.8426   22.2533 H       1  lig         0.0966
      8 H8         12.8201   10.3180   19.9847 H       1  lig         0.4431
      9 H9         13.9212    9.1715   20.4601 H       1  lig         0.4431
     10 H10        12.2944    8.8141   20.4824 H       1  lig         0.4431
     11 H11         7.1085    6.8782   20.3571 H       1  lig         0.4214
     12 C1          9.8280    8.7804   22.9946 C.ar    1  lig        -0.0999
     13 C2          9.8673    9.3171   20.6766 C.ar    1  lig        -0.0999
     14 C3          8.8586    7.8537   22.7258 C.ar    1  lig        -0.1787
     15 C4          8.8602    8.4123   20.4001 C.ar    1  lig        -0.1787
     16 C5         10.3326    9.5216   21.9705 C.ar    1  lig        -0.1394
     17 C6          8.3484    7.6820   21.4663 C.ar    1  lig         0.1292
     18 C7         13.1593    8.9360   23.0543 C.2     1  lig         0.9321
     19 C8         11.4247   10.5350   22.2553 C.3     1  lig        -0.0452
     20 C9         12.8585   10.0388   22.0654 C.3     1  lig        -0.0740
     21 N1         12.9893    9.5759   20.6843 N.4     1  lig        -0.8252
     22 O1         13.3707    7.8367   22.5469 O.co2   1  lig        -0.7573
     23 O2         13.1650    9.1062   24.3072 O.co2   1  lig        -0.7573
     24 O3          7.4587    6.7882   21.2904 O.3     1  lig        -0.4913
@<TRIPOS>BOND
     1     1    12    1
     2     2    13    1
     3     3    14    1
     4     4    15    1
     5     5    19    1
     6     6    19    1
     7     7    20    1
     8     8    21    1
     9     9    21    1
    10    10    21    1
    11    11    24    1
    12    12    14   ar
    13    12    16   ar
    14    13    15   ar
    15    13    16   ar
    16    14    17   ar
    17    15    17   ar
    18    16    19    1
    19    17    24    1
    20    18    20    1
    21    18    22    1
    22    18    23    1
    23    19    20    1
    24    20    21    1
@<TRIPOS>SUBSTRUCTURE
     1 lig         1 TEMP              0 ****  ****    0 ROOT


########## Name:		ligand
########## HA_RMSDs:		11.8026
########## HA_RMSDh:		11.7265
########## HA_RMSDm:		9.5917
########## Cluster Size:	2
##########    Grid Score:          -19.875801
##########      Grid_vdw:          -19.544985
##########       Grid_es:           -0.330817
##########    Int_energy:            1.964558

@<TRIPOS>MOLECULE
ligand
 24 24 1 0 0
SMALL
No Charge or Current Charge


@<TRIPOS>ATOM
      1 H1         11.9745    9.8681   20.4743 H       1  lig         0.1340
      2 H2          8.9593   10.3845   23.4504 H       1  lig         0.1340
      3 H3         10.5265    8.2690   19.3364 H       1  lig         0.1475
      4 H4          7.5122    8.7330   22.3335 H       1  lig         0.1475
      5 H5         11.9051   11.8575   21.9794 H       1  lig         0.0877
      6 H6         10.8586   11.9011   23.3627 H       1  lig         0.0877
      7 H7         12.2764    9.6641   24.0200 H       1  lig         0.0966
      8 H8         12.0112   11.7241   25.3135 H       1  lig         0.4431
      9 H9         13.6118   11.2874   25.3284 H       1  lig         0.4431
     10 H10        13.0990   12.5126   24.3232 H       1  lig         0.4431
     11 H11         8.7680    7.2789   19.2880 H       1  lig         0.4214
     12 C1         11.0026    9.6238   20.8953 C.ar    1  lig        -0.0999
     13 C2          9.3047    9.9016   22.5393 C.ar    1  lig        -0.0999
     14 C3         10.1863    8.7315   20.2565 C.ar    1  lig        -0.1787
     15 C4          8.4886    8.9718   21.9239 C.ar    1  lig        -0.1787
     16 C5         10.5671   10.2086   22.0447 C.ar    1  lig        -0.1394
     17 C6          8.9646    8.3746   20.7627 C.ar    1  lig         0.1292
     18 C7         13.8084   10.3994   22.7714 C.2     1  lig         0.9321
     19 C8         11.4558   11.2172   22.7475 C.3     1  lig        -0.0452
     20 C9         12.5732   10.6311   23.6111 C.3     1  lig        -0.0740
     21 N1         12.8307   11.5701   24.7023 N.4     1  lig        -0.8252
     22 O1         14.3913   11.4242   22.4241 O.co2   1  lig        -0.7573
     23 O2         14.2056    9.2521   22.4182 O.co2   1  lig        -0.7573
     24 O3          8.2537    7.5495   20.1029 O.3     1  lig        -0.4913
@<TRIPOS>BOND
     1     1    12    1
     2     2    13    1
     3     3    14    1
     4     4    15    1
     5     5    19    1
     6     6    19    1
     7     7    20    1
     8     8    21    1
     9     9    21    1
    10    10    21    1
    11    11    24    1
    12    12    14   ar
    13    12    16   ar
    14    13    15   ar
    15    13    16   ar
    16    14    17   ar
    17    15    17   ar
    18    16    19    1
    19    17    24    1
    20    18    20    1
    21    18    22    1
    22    18    23    1
    23    19    20    1
    24    20    21    1
@<TRIPOS>SUBSTRUCTURE
     1 lig         1 TEMP              0 ****  ****    0 ROOT


########## Name:		ligand
########## HA_RMSDs:		10.1659
########## HA_RMSDh:		10.1626
########## HA_RMSDm:		8.2178
########## Cluster Size:	2
##########    Grid Score:          -19.873623
##########      Grid_vdw:          -16.997778
##########       Grid_es:           -2.875845
##########    Int_energy:            2.099745

@<TRIPOS>MOLECULE
ligand
 24 24 1 0 0
SMALL
No Charge or Current Charge


@<TRIPOS>ATOM
      1 H1         13.0431   12.0252   25.8519 H       1  lig         0.1340
      2 H2         14.4037   11.1927   21.8932 H       1  lig         0.1340
      3 H3         15.0880   13.2938   26.2491 H       1  lig         0.1475
      4 H4         16.4938   12.4305   22.3043 H       1  lig         0.1475
      5 H5         12.5559    9.9549   22.8622 H       1  lig         0.0877
      6 H6         12.0161   10.1878   24.4946 H       1  lig         0.0877
      7 H7         11.3960   12.0574   22.1522 H       1  lig         0.0966
      8 H8         11.5979   13.2097   24.3012 H       1  lig         0.4431
      9 H9          9.9941   13.1407   23.8816 H       1  lig         0.4431
     10 H10        10.5956   12.0871   25.0229 H       1  lig         0.4431
     11 H11        17.4893   13.7138   23.7701 H       1  lig         0.4214
     12 C1         13.7933   12.1009   25.0689 C.ar    1  lig        -0.0999
     13 C2         14.5683   11.6553   22.8635 C.ar    1  lig        -0.0999
     14 C3         14.9384   12.8162   25.2870 C.ar    1  lig        -0.1787
     15 C4         15.7467   12.3417   23.0865 C.ar    1  lig        -0.1787
     16 C5         13.6061   11.5111   23.8564 C.ar    1  lig        -0.1394
     17 C6         15.9220   12.9180   24.3392 C.ar    1  lig         0.1292
     18 C7          9.9684   10.6494   22.8054 C.2     1  lig         0.9321
     19 C8         12.3284   10.7357   23.5973 C.3     1  lig        -0.0452
     20 C9         11.1435   11.5571   23.0883 C.3     1  lig        -0.0740
     21 N1         10.8222   12.5537   24.1092 N.4     1  lig        -0.8252
     22 O1         10.0618    9.9994   21.7665 O.co2   1  lig        -0.7573
     23 O2          8.9491   10.5769   23.5500 O.co2   1  lig        -0.7573
     24 O3         16.9530   13.6147   24.6093 O.3     1  lig        -0.4913
@<TRIPOS>BOND
     1     1    12    1
     2     2    13    1
     3     3    14    1
     4     4    15    1
     5     5    19    1
     6     6    19    1
     7     7    20    1
     8     8    21    1
     9     9    21    1
    10    10    21    1
    11    11    24    1
    12    12    14   ar
    13    12    16   ar
    14    13    15   ar
    15    13    16   ar
    16    14    17   ar
    17    15    17   ar
    18    16    19    1
    19    17    24    1
    20    18    20    1
    21    18    22    1
    22    18    23    1
    23    19    20    1
    24    20    21    1
@<TRIPOS>SUBSTRUCTURE
     1 lig         1 TEMP              0 ****  ****    0 ROOT


########## Name:		ligand
########## HA_RMSDs:		13.6637
########## HA_RMSDh:		13.6269
########## HA_RMSDm:		11.5133
########## Cluster Size:	1
##########    Grid Score:          -19.862652
##########      Grid_vdw:          -18.656446
##########       Grid_es:           -1.206206
##########    Int_energy:            2.441046

@<TRIPOS>MOLECULE
ligand
 24 24 1 0 0
SMALL
No Charge or Current Charge


@<TRIPOS>ATOM
      1 H1          9.8672    8.1650   19.4946 H       1  lig         0.1340
      2 H2          7.8652    9.3810   23.0624 H       1  lig         0.1340
      3 H3         11.7359    9.6141   20.0924 H       1  lig         0.1475
      4 H4          9.7272   10.8844   23.6470 H       1  lig         0.1475
      5 H5          6.6645    8.2496   21.2515 H       1  lig         0.0877
      6 H6          7.4415    7.7441   19.7848 H       1  lig         0.0877
      7 H7          8.5802    5.8700   21.0575 H       1  lig         0.0966
      8 H8          6.4465    5.5713   19.8977 H       1  lig         0.4431
      9 H9          6.4364    4.6512   21.2785 H       1  lig         0.4431
     10 H10         5.6147    6.0997   21.2448 H       1  lig         0.4431
     11 H11        12.5668   10.8732   21.4382 H       1  lig         0.4214
     12 C1          9.8211    8.7599   20.4033 C.ar    1  lig        -0.0999
     13 C2          8.7265    9.4462   22.4016 C.ar    1  lig        -0.0999
     14 C3         10.8699    9.5691   20.7437 C.ar    1  lig        -0.1787
     15 C4          9.7628   10.2973   22.7349 C.ar    1  lig        -0.1787
     16 C5          8.7406    8.6999   21.2289 C.ar    1  lig        -0.1394
     17 C6         10.8456   10.3549   21.8654 C.ar    1  lig         0.1292
     18 C7          7.7338    6.3791   22.9206 C.2     1  lig         0.9321
     19 C8          7.5830    7.7872   20.8715 C.3     1  lig        -0.0452
     20 C9          7.6711    6.3590   21.4105 C.3     1  lig        -0.0740
     21 N1          6.4992    5.6289   20.9287 N.4     1  lig        -0.8252
     22 O1          8.8707    6.3456   23.3866 O.co2   1  lig        -0.7573
     23 O2          6.7085    6.3959   23.6603 O.co2   1  lig        -0.7573
     24 O3         11.8663   11.0704   22.1253 O.3     1  lig        -0.4913
@<TRIPOS>BOND
     1     1    12    1
     2     2    13    1
     3     3    14    1
     4     4    15    1
     5     5    19    1
     6     6    19    1
     7     7    20    1
     8     8    21    1
     9     9    21    1
    10    10    21    1
    11    11    24    1
    12    12    14   ar
    13    12    16   ar
    14    13    15   ar
    15    13    16   ar
    16    14    17   ar
    17    15    17   ar
    18    16    19    1
    19    17    24    1
    20    18    20    1
    21    18    22    1
    22    18    23    1
    23    19    20    1
    24    20    21    1
@<TRIPOS>SUBSTRUCTURE
     1 lig         1 TEMP              0 ****  ****    0 ROOT


########## Name:		ligand
########## HA_RMSDs:		12.8883
########## HA_RMSDh:		12.8221
########## HA_RMSDm:		10.4449
########## Cluster Size:	1
##########    Grid Score:          -19.853893
##########      Grid_vdw:          -19.199802
##########       Grid_es:           -0.654090
##########    Int_energy:            2.119602

@<TRIPOS>MOLECULE
ligand
 24 24 1 0 0
SMALL
No Charge or Current Charge


@<TRIPOS>ATOM
      1 H1         11.7221   12.4309   23.5619 H       1  lig         0.1340
      2 H2          8.3612    9.8061   23.3878 H       1  lig         0.1340
      3 H3         12.6814   11.2713   21.6426 H       1  lig         0.1475
      4 H4          9.3476    8.5985   21.4805 H       1  lig         0.1475
      5 H5          9.3036   12.9655   24.5239 H       1  lig         0.0877
      6 H6          8.3480   11.5830   24.9554 H       1  lig         0.0877
      7 H7         11.0839   12.3469   26.0630 H       1  lig         0.0966
      8 H8         11.0134    9.9456   25.5988 H       1  lig         0.4431
      9 H9         10.9094   10.1750   27.2388 H       1  lig         0.4431
     10 H10         9.5365    9.8178   26.3658 H       1  lig         0.4431
     11 H11        12.4774    9.8491   20.2210 H       1  lig         0.4214
     12 C1         11.1949   11.5894   23.1196 C.ar    1  lig        -0.0999
     13 C2          9.3273   10.1197   22.9993 C.ar    1  lig        -0.0999
     14 C3         11.7279   10.9408   22.0398 C.ar    1  lig        -0.1787
     15 C4          9.8753    9.4318   21.9335 C.ar    1  lig        -0.1787
     16 C5          9.9935   11.1768   23.6085 C.ar    1  lig        -0.1394
     17 C6         11.1119    9.8606   21.4656 C.ar    1  lig         0.1292
     18 C7          9.3311   12.3829   27.2350 C.2     1  lig         0.9321
     19 C8          9.3834   11.9052   24.7909 C.3     1  lig        -0.0452
     20 C9         10.1476   11.7888   26.1102 C.3     1  lig        -0.0740
     21 N1         10.4288   10.3718   26.3374 N.4     1  lig        -0.8252
     22 O1          8.2498   11.8320   27.4294 O.co2   1  lig        -0.7573
     23 O2          9.7012   13.3860   27.9099 O.co2   1  lig        -0.7573
     24 O3         11.6611    9.3184   20.4528 O.3     1  lig        -0.4913
@<TRIPOS>BOND
     1     1    12    1
     2     2    13    1
     3     3    14    1
     4     4    15    1
     5     5    19    1
     6     6    19    1
     7     7    20    1
     8     8    21    1
     9     9    21    1
    10    10    21    1
    11    11    24    1
    12    12    14   ar
    13    12    16   ar
    14    13    15   ar
    15    13    16   ar
    16    14    17   ar
    17    15    17   ar
    18    16    19    1
    19    17    24    1
    20    18    20    1
    21    18    22    1
    22    18    23    1
    23    19    20    1
    24    20    21    1
@<TRIPOS>SUBSTRUCTURE
     1 lig         1 TEMP              0 ****  ****    0 ROOT


########## Name:		ligand
########## HA_RMSDs:		10.7095
########## HA_RMSDh:		10.6127
########## HA_RMSDm:		8.8235
########## Cluster Size:	1
##########    Grid Score:          -19.852753
##########      Grid_vdw:          -16.855423
##########       Grid_es:           -2.997330
##########    Int_energy:            2.466996

@<TRIPOS>MOLECULE
ligand
 24 24 1 0 0
SMALL
No Charge or Current Charge


@<TRIPOS>ATOM
      1 H1         14.0631    9.2554   21.0638 H       1  lig         0.1340
      2 H2         12.2456   11.6498   24.0935 H       1  lig         0.1340
      3 H3         11.8823    9.0118   19.9989 H       1  lig         0.1475
      4 H4         10.0317   11.3665   23.0508 H       1  lig         0.1475
      5 H5         14.6924    9.9232   24.1605 H       1  lig         0.0877
      6 H6         15.4457   10.2918   22.6415 H       1  lig         0.0877
      7 H7         14.2545   12.7495   23.4186 H       1  lig         0.0966
      8 H8         16.4130   12.3654   22.3321 H       1  lig         0.4431
      9 H9         16.6562   13.2864   23.6906 H       1  lig         0.4431
     10 H10        17.0118   11.6594   23.7208 H       1  lig         0.4431
     11 H11         9.9215    9.5046   19.9748 H       1  lig         0.4214
     12 C1         13.1874    9.7174   21.5126 C.ar    1  lig        -0.0999
     13 C2         12.1544   11.0559   23.1871 C.ar    1  lig        -0.0999
     14 C3         11.9643    9.5870   20.9146 C.ar    1  lig        -0.1787
     15 C4         10.9073   10.8974   22.6135 C.ar    1  lig        -0.1787
     16 C5         13.2866   10.4482   22.6567 C.ar    1  lig        -0.1394
     17 C6         10.8299   10.1304   21.4569 C.ar    1  lig         0.1292
     18 C7         14.8582   12.0746   25.3230 C.2     1  lig         0.9321
     19 C8         14.6431   10.6181   23.3139 C.3     1  lig        -0.0452
     20 C9         14.9672   12.0254   23.8162 C.3     1  lig        -0.0740
     21 N1         16.3162   12.3600   23.3614 N.4     1  lig        -0.8252
     22 O1         15.7597   11.4912   25.9211 O.co2   1  lig        -0.7573
     23 O2         13.9057   12.6380   25.9346 O.co2   1  lig        -0.7573
     24 O3          9.7295    9.9805   20.8341 O.3     1  lig        -0.4913
@<TRIPOS>BOND
     1     1    12    1
     2     2    13    1
     3     3    14    1
     4     4    15    1
     5     5    19    1
     6     6    19    1
     7     7    20    1
     8     8    21    1
     9     9    21    1
    10    10    21    1
    11    11    24    1
    12    12    14   ar
    13    12    16   ar
    14    13    15   ar
    15    13    16   ar
    16    14    17   ar
    17    15    17   ar
    18    16    19    1
    19    17    24    1
    20    18    20    1
    21    18    22    1
    22    18    23    1
    23    19    20    1
    24    20    21    1
@<TRIPOS>SUBSTRUCTURE
     1 lig         1 TEMP              0 ****  ****    0 ROOT


########## Name:		ligand
########## HA_RMSDs:		12.8648
########## HA_RMSDh:		12.8338
########## HA_RMSDm:		10.7828
########## Cluster Size:	1
##########    Grid Score:          -19.838614
##########      Grid_vdw:          -18.955093
##########       Grid_es:           -0.883520
##########    Int_energy:            2.871609

@<TRIPOS>MOLECULE
ligand
 24 24 1 0 0
SMALL
No Charge or Current Charge


@<TRIPOS>ATOM
      1 H1         10.9031    9.2668   20.2515 H       1  lig         0.1340
      2 H2          8.2542    9.8866   23.5401 H       1  lig         0.1340
      3 H3         12.4974   10.7889   21.2956 H       1  lig         0.1475
      4 H4          9.8385   11.4636   24.5757 H       1  lig         0.1475
      5 H5          7.5000    9.0271   21.1803 H       1  lig         0.0877
      6 H6          8.7167    8.3845   20.1232 H       1  lig         0.0877
      7 H7          7.8630    7.2741   22.8320 H       1  lig         0.0966
      8 H8         10.3013    7.2234   22.6348 H       1  lig         0.4431
      9 H9          9.7192    5.6806   22.4509 H       1  lig         0.4431
     10 H10        10.1866    6.5525   21.1108 H       1  lig         0.4431
     11 H11        11.8690   12.2586   24.3820 H       1  lig         0.4214
     12 C1         10.6549    9.7460   21.1952 C.ar    1  lig        -0.0999
     13 C2          9.1969   10.1006   23.0421 C.ar    1  lig        -0.0999
     14 C3         11.5494   10.5957   21.7856 C.ar    1  lig        -0.1787
     15 C4         10.0760   10.9915   23.6276 C.ar    1  lig        -0.1787
     16 C5          9.4704    9.4995   21.8189 C.ar    1  lig        -0.1394
     17 C6         11.2699   11.2410   22.9611 C.ar    1  lig         0.1292
     18 C7          7.4875    6.2624   21.0203 C.2     1  lig         0.9321
     19 C8          8.4822    8.5401   21.1832 C.3     1  lig        -0.0452
     20 C9          8.3501    7.1758   21.8608 C.3     1  lig        -0.0740
     21 N1          9.6972    6.6347   22.0370 N.4     1  lig        -0.8252
     22 O1          6.7051    6.8430   20.2711 O.co2   1  lig        -0.7573
     23 O2          7.5315    5.0008   21.0933 O.co2   1  lig        -0.7573
     24 O3         12.1590   12.0049   23.4583 O.3     1  lig        -0.4913
@<TRIPOS>BOND
     1     1    12    1
     2     2    13    1
     3     3    14    1
     4     4    15    1
     5     5    19    1
     6     6    19    1
     7     7    20    1
     8     8    21    1
     9     9    21    1
    10    10    21    1
    11    11    24    1
    12    12    14   ar
    13    12    16   ar
    14    13    15   ar
    15    13    16   ar
    16    14    17   ar
    17    15    17   ar
    18    16    19    1
    19    17    24    1
    20    18    20    1
    21    18    22    1
    22    18    23    1
    23    19    20    1
    24    20    21    1
@<TRIPOS>SUBSTRUCTURE
     1 lig         1 TEMP              0 ****  ****    0 ROOT


########## Name:		ligand
########## HA_RMSDs:		12.0857
########## HA_RMSDh:		12.0627
########## HA_RMSDm:		10.0499
########## Cluster Size:	1
##########    Grid Score:          -19.835135
##########      Grid_vdw:          -18.780842
##########       Grid_es:           -1.054293
##########    Int_energy:            2.252972

@<TRIPOS>MOLECULE
ligand
 24 24 1 0 0
SMALL
No Charge or Current Charge


@<TRIPOS>ATOM
      1 H1          9.8121   10.6073   24.2303 H       1  lig         0.1340
      2 H2         10.7287    9.5614   20.1953 H       1  lig         0.1340
      3 H3          7.7606    9.2985   24.0654 H       1  lig         0.1475
      4 H4          8.6339    8.2789   20.0057 H       1  lig         0.1475
      5 H5         11.9533   11.2931   21.3055 H       1  lig         0.0877
      6 H6         11.5067   11.9221   22.8597 H       1  lig         0.0877
      7 H7         12.6655   10.0532   24.0085 H       1  lig         0.0966
      8 H8         13.9280   12.0273   23.3045 H       1  lig         0.4431
      9 H9         14.9102   10.6954   23.1846 H       1  lig         0.4431
     10 H10        14.2179   11.3376   21.8124 H       1  lig         0.4431
     11 H11         6.8723    7.6491   21.1292 H       1  lig         0.4214
     12 C1          9.5629   10.1076   23.2976 C.ar    1  lig        -0.0999
     13 C2         10.0575    9.5058   21.0491 C.ar    1  lig        -0.0999
     14 C3          8.4158    9.3685   23.2041 C.ar    1  lig        -0.1787
     15 C4          8.8818    8.7896   20.9307 C.ar    1  lig        -0.1787
     16 C5         10.3866   10.1847   22.2167 C.ar    1  lig        -0.1394
     17 C6          8.0488    8.7426   22.0424 C.ar    1  lig         0.1292
     18 C7         13.0691    8.9205   22.2761 C.2     1  lig         0.9321
     19 C8         11.6726   10.9826   22.3187 C.3     1  lig        -0.0452
     20 C9         12.8581   10.2550   22.9537 C.3     1  lig        -0.0740
     21 N1         14.0313   11.1182   22.8229 N.4     1  lig        -0.8252
     22 O1         13.4602    8.9927   21.1132 O.co2   1  lig        -0.7573
     23 O2         12.8356    7.8107   22.8352 O.co2   1  lig        -0.7573
     24 O3          6.9745    8.0591   22.0365 O.3     1  lig        -0.4913
@<TRIPOS>BOND
     1     1    12    1
     2     2    13    1
     3     3    14    1
     4     4    15    1
     5     5    19    1
     6     6    19    1
     7     7    20    1
     8     8    21    1
     9     9    21    1
    10    10    21    1
    11    11    24    1
    12    12    14   ar
    13    12    16   ar
    14    13    15   ar
    15    13    16   ar
    16    14    17   ar
    17    15    17   ar
    18    16    19    1
    19    17    24    1
    20    18    20    1
    21    18    22    1
    22    18    23    1
    23    19    20    1
    24    20    21    1
@<TRIPOS>SUBSTRUCTURE
     1 lig         1 TEMP              0 ****  ****    0 ROOT


########## Name:		ligand
########## HA_RMSDs:		13.4129
########## HA_RMSDh:		13.3425
########## HA_RMSDm:		10.9401
########## Cluster Size:	1
##########    Grid Score:          -19.817907
##########      Grid_vdw:          -18.439875
##########       Grid_es:           -1.378034
##########    Int_energy:            1.558428

@<TRIPOS>MOLECULE
ligand
 24 24 1 0 0
SMALL
No Charge or Current Charge


@<TRIPOS>ATOM
      1 H1          8.0340    9.1345   22.7780 H       1  lig         0.1340
      2 H2         10.9244   12.1321   23.7140 H       1  lig         0.1340
      3 H3          9.4739    8.3630   20.9668 H       1  lig         0.1475
      4 H4         12.3605   11.3900   21.8549 H       1  lig         0.1475
      5 H5          8.3468   12.2479   24.3629 H       1  lig         0.0877
      6 H6          7.4892   10.7400   24.4003 H       1  lig         0.0877
      7 H7          9.7968   11.6272   26.1566 H       1  lig         0.0966
      8 H8         10.3816    9.4331   25.2452 H       1  lig         0.4431
      9 H9          9.9454    9.2508   26.8357 H       1  lig         0.4431
     10 H10         8.8685    8.8441   25.6318 H       1  lig         0.4431
     11 H11        12.3075   10.0763   20.0212 H       1  lig         0.4214
     12 C1          8.9757    9.6412   22.5826 C.ar    1  lig        -0.0999
     13 C2         10.6043   11.2999   23.0914 C.ar    1  lig        -0.0999
     14 C3          9.7876    9.2071   21.5711 C.ar    1  lig        -0.1787
     15 C4         11.4136   10.8954   22.0470 C.ar    1  lig        -0.1787
     16 C5          9.3784   10.6951   23.3440 C.ar    1  lig        -0.1394
     17 C6         10.9706    9.8297   21.2725 C.ar    1  lig         0.1292
     18 C7          7.9113   11.0463   26.9013 C.2     1  lig         0.9321
     19 C8          8.4954   11.1684   24.4830 C.3     1  lig        -0.0452
     20 C9          9.0268   10.9011   25.8917 C.3     1  lig        -0.0740
     21 N1          9.5942    9.5533   25.9044 N.4     1  lig        -0.8252
     22 O1          7.7854   12.1769   27.3665 O.co2   1  lig        -0.7573
     23 O2          7.1786   10.0851   27.2730 O.co2   1  lig        -0.7573
     24 O3         11.6807    9.3582   20.3265 O.3     1  lig        -0.4913
@<TRIPOS>BOND
     1     1    12    1
     2     2    13    1
     3     3    14    1
     4     4    15    1
     5     5    19    1
     6     6    19    1
     7     7    20    1
     8     8    21    1
     9     9    21    1
    10    10    21    1
    11    11    24    1
    12    12    14   ar
    13    12    16   ar
    14    13    15   ar
    15    13    16   ar
    16    14    17   ar
    17    15    17   ar
    18    16    19    1
    19    17    24    1
    20    18    20    1
    21    18    22    1
    22    18    23    1
    23    19    20    1
    24    20    21    1
@<TRIPOS>SUBSTRUCTURE
     1 lig         1 TEMP              0 ****  ****    0 ROOT


########## Name:		ligand
########## HA_RMSDs:		13.6199
########## HA_RMSDh:		13.5754
########## HA_RMSDm:		11.4111
########## Cluster Size:	1
##########    Grid Score:          -19.807671
##########      Grid_vdw:          -19.085716
##########       Grid_es:           -0.721953
##########    Int_energy:            3.401633

@<TRIPOS>MOLECULE
ligand
 24 24 1 0 0
SMALL
No Charge or Current Charge


@<TRIPOS>ATOM
      1 H1         10.5040    7.9096   19.6575 H       1  lig         0.1340
      2 H2          8.7950    8.4290   23.5337 H       1  lig         0.1340
      3 H3         11.8791    9.8877   20.0384 H       1  lig         0.1475
      4 H4         10.1444   10.4564   23.9051 H       1  lig         0.1475
      5 H5          9.2578    6.1551   20.6655 H       1  lig         0.0877
      6 H6          8.5971    6.2467   22.2673 H       1  lig         0.0877
      7 H7          7.1690    6.4685   19.8450 H       1  lig         0.0966
      8 H8          7.8971    8.8018   19.7344 H       1  lig         0.4431
      9 H9          6.2718    8.7655   20.0660 H       1  lig         0.4431
     10 H10         7.3586    9.0672   21.2918 H       1  lig         0.4431
     11 H11        11.3742   11.9916   22.6611 H       1  lig         0.4214
     12 C1         10.4110    8.4617   20.5893 C.ar    1  lig        -0.0999
     13 C2          9.4770    8.7662   22.7567 C.ar    1  lig        -0.0999
     14 C3         11.1847    9.5681   20.8077 C.ar    1  lig        -0.1787
     15 C4         10.2246    9.9082   22.9718 C.ar    1  lig        -0.1787
     16 C5          9.5478    8.0592   21.5619 C.ar    1  lig        -0.1394
     17 C6         11.0838   10.3090   21.9554 C.ar    1  lig         0.1292
     18 C7          6.2517    6.6272   21.7371 C.2     1  lig         0.9321
     19 C8          8.7028    6.8196   21.3380 C.3     1  lig        -0.0452
     20 C9          7.3118    7.0601   20.7505 C.3     1  lig        -0.0740
     21 N1          7.2037    8.4833   20.4321 N.4     1  lig        -0.8252
     22 O1          6.3399    7.1499   22.8460 O.co2   1  lig        -0.7573
     23 O2          5.3587    5.7727   21.4700 O.co2   1  lig        -0.7573
     24 O3         11.8490   11.3172   22.0941 O.3     1  lig        -0.4913
@<TRIPOS>BOND
     1     1    12    1
     2     2    13    1
     3     3    14    1
     4     4    15    1
     5     5    19    1
     6     6    19    1
     7     7    20    1
     8     8    21    1
     9     9    21    1
    10    10    21    1
    11    11    24    1
    12    12    14   ar
    13    12    16   ar
    14    13    15   ar
    15    13    16   ar
    16    14    17   ar
    17    15    17   ar
    18    16    19    1
    19    17    24    1
    20    18    20    1
    21    18    22    1
    22    18    23    1
    23    19    20    1
    24    20    21    1
@<TRIPOS>SUBSTRUCTURE
     1 lig         1 TEMP              0 ****  ****    0 ROOT


########## Name:		ligand
########## HA_RMSDs:		12.8719
########## HA_RMSDh:		12.7963
########## HA_RMSDm:		11.1326
########## Cluster Size:	1
##########    Grid Score:          -19.770683
##########      Grid_vdw:          -18.404982
##########       Grid_es:           -1.365702
##########    Int_energy:            1.726922

@<TRIPOS>MOLECULE
ligand
 24 24 1 0 0
SMALL
No Charge or Current Charge


@<TRIPOS>ATOM
      1 H1          7.4497    9.4582   23.5639 H       1  lig         0.1340
      2 H2         11.2396   10.5604   21.9398 H       1  lig         0.1340
      3 H3          7.2302    7.7737   21.8137 H       1  lig         0.1475
      4 H4         11.0017    8.8952   20.1399 H       1  lig         0.1475
      5 H5          9.4906   12.1553   23.4705 H       1  lig         0.0877
      6 H6          8.6196   11.1691   24.6016 H       1  lig         0.0877
      7 H7         11.3637   10.2008   24.4817 H       1  lig         0.0966
      8 H8          9.7701    9.9813   26.3254 H       1  lig         0.4431
      9 H9         11.1100   10.7929   26.8723 H       1  lig         0.4431
     10 H10         9.7217   11.6394   26.5107 H       1  lig         0.4431
     11 H11         7.9765    6.9447   20.1240 H       1  lig         0.4214
     12 C1          8.2318    9.3495   22.8167 C.ar    1  lig        -0.0999
     13 C2         10.3456    9.9426   21.8987 C.ar    1  lig        -0.0999
     14 C3          8.1138    8.4021   21.8374 C.ar    1  lig        -0.1787
     15 C4         10.2185    9.0160   20.8815 C.ar    1  lig        -0.1787
     16 C5          9.3470   10.1293   22.8477 C.ar    1  lig        -0.1394
     17 C6          9.0616    8.2460   20.8609 C.ar    1  lig         0.1292
     18 C7         11.6025   12.2882   24.6617 C.2     1  lig         0.9321
     19 C8          9.4974   11.1666   23.9441 C.3     1  lig        -0.0452
     20 C9         10.7543   11.0455   24.8064 C.3     1  lig        -0.0740
     21 N1         10.3264   10.8422   26.1899 N.4     1  lig        -0.8252
     22 O1         11.0874   13.3140   25.1010 O.co2   1  lig        -0.7573
     23 O2         12.7386   12.2956   24.1065 O.co2   1  lig        -0.7573
     24 O3          8.8901    7.3315   19.9917 O.3     1  lig        -0.4913
@<TRIPOS>BOND
     1     1    12    1
     2     2    13    1
     3     3    14    1
     4     4    15    1
     5     5    19    1
     6     6    19    1
     7     7    20    1
     8     8    21    1
     9     9    21    1
    10    10    21    1
    11    11    24    1
    12    12    14   ar
    13    12    16   ar
    14    13    15   ar
    15    13    16   ar
    16    14    17   ar
    17    15    17   ar
    18    16    19    1
    19    17    24    1
    20    18    20    1
    21    18    22    1
    22    18    23    1
    23    19    20    1
    24    20    21    1
@<TRIPOS>SUBSTRUCTURE
     1 lig         1 TEMP              0 ****  ****    0 ROOT


########## Name:		ligand
########## HA_RMSDs:		13.5573
########## HA_RMSDh:		13.5028
########## HA_RMSDm:		11.4645
########## Cluster Size:	1
##########    Grid Score:          -19.762241
##########      Grid_vdw:          -17.600929
##########       Grid_es:           -2.161313
##########    Int_energy:            1.493597

@<TRIPOS>MOLECULE
ligand
 24 24 1 0 0
SMALL
No Charge or Current Charge


@<TRIPOS>ATOM
      1 H1          8.0323    9.6678   23.8909 H       1  lig         0.1340
      2 H2          9.2754    8.5402   19.9668 H       1  lig         0.1340
      3 H3          6.1836    8.0859   23.7206 H       1  lig         0.1475
      4 H4          7.3816    6.9771   19.7685 H       1  lig         0.1475
      5 H5         10.3107   10.3495   21.0278 H       1  lig         0.0877
      6 H6          9.5712   11.1780   22.3609 H       1  lig         0.0877
      7 H7         10.6851    9.3947   23.9051 H       1  lig         0.0966
      8 H8         11.4486   11.7023   23.6237 H       1  lig         0.4431
      9 H9         12.7749   10.7114   23.7338 H       1  lig         0.4431
     10 H10        12.2895   11.2798   22.2452 H       1  lig         0.4431
     11 H11         5.2321    6.6703   22.6390 H       1  lig         0.4214
     12 C1          7.8975    9.0895   22.9804 C.ar    1  lig        -0.0999
     13 C2          8.5768    8.4402   20.7942 C.ar    1  lig        -0.0999
     14 C3          6.8649    8.1977   22.8843 C.ar    1  lig        -0.1787
     15 C4          7.5140    7.5658   20.6707 C.ar    1  lig        -0.1787
     16 C5          8.7553    9.2193   21.9315 C.ar    1  lig        -0.1394
     17 C6          6.6415    7.4661   21.7481 C.ar    1  lig         0.1292
     18 C7         11.8204    8.6053   22.3129 C.2     1  lig         0.9321
     19 C8          9.9172   10.1886   22.0383 C.3     1  lig        -0.0452
     20 C9         11.0665    9.7516   22.9472 C.3     1  lig        -0.0740
     21 N1         11.9297   10.9124   23.1616 N.4     1  lig        -0.8252
     22 O1         11.5085    7.4928   22.7321 O.co2   1  lig        -0.7573
     23 O2         12.7250    8.7627   21.4436 O.co2   1  lig        -0.7573
     24 O3          5.6693    6.6440   21.7391 O.3     1  lig        -0.4913
@<TRIPOS>BOND
     1     1    12    1
     2     2    13    1
     3     3    14    1
     4     4    15    1
     5     5    19    1
     6     6    19    1
     7     7    20    1
     8     8    21    1
     9     9    21    1
    10    10    21    1
    11    11    24    1
    12    12    14   ar
    13    12    16   ar
    14    13    15   ar
    15    13    16   ar
    16    14    17   ar
    17    15    17   ar
    18    16    19    1
    19    17    24    1
    20    18    20    1
    21    18    22    1
    22    18    23    1
    23    19    20    1
    24    20    21    1
@<TRIPOS>SUBSTRUCTURE
     1 lig         1 TEMP              0 ****  ****    0 ROOT


########## Name:		ligand
########## HA_RMSDs:		13.6321
########## HA_RMSDh:		13.5529
########## HA_RMSDm:		11.1595
########## Cluster Size:	1
##########    Grid Score:          -19.742456
##########      Grid_vdw:          -16.882011
##########       Grid_es:           -2.860444
##########    Int_energy:            3.694168

@<TRIPOS>MOLECULE
ligand
 24 24 1 0 0
SMALL
No Charge or Current Charge


@<TRIPOS>ATOM
      1 H1          9.9678    9.2993   20.1815 H       1  lig         0.1340
      2 H2          7.7542    9.0593   23.8227 H       1  lig         0.1340
      3 H3          8.5008    7.6044   19.2202 H       1  lig         0.1475
      4 H4          6.3001    7.3112   22.8747 H       1  lig         0.1475
      5 H5         10.0635   11.0788   21.8860 H       1  lig         0.0877
      6 H6          9.3397   10.8915   23.4517 H       1  lig         0.0877
      7 H7         11.4024   10.2974   24.1960 H       1  lig         0.0966
      8 H8         12.3230   11.2445   22.1363 H       1  lig         0.4431
      9 H9         13.1972    9.8930   22.5391 H       1  lig         0.4431
     10 H10        12.0552    9.8081   21.3295 H       1  lig         0.4431
     11 H11         7.1586    5.9922   19.7157 H       1  lig         0.4214
     12 C1          9.1726    8.8676   20.7840 C.ar    1  lig        -0.0999
     13 C2          7.9198    8.7227   22.8020 C.ar    1  lig        -0.0999
     14 C3          8.3450    7.9210   20.2457 C.ar    1  lig        -0.1787
     15 C4          7.1031    7.7370   22.2815 C.ar    1  lig        -0.1787
     16 C5          8.9671    9.2683   22.0686 C.ar    1  lig        -0.1394
     17 C6          7.3461    7.3316   20.9745 C.ar    1  lig         0.1292
     18 C7         11.1543    8.3468   23.4343 C.2     1  lig         0.9321
     19 C8          9.8650   10.3348   22.6663 C.3     1  lig        -0.0452
     20 C9         11.2007    9.8430   23.2248 C.3     1  lig        -0.0740
     21 N1         12.2464   10.2229   22.2757 N.4     1  lig        -0.8252
     22 O1         11.6039    7.6848   22.5014 O.co2   1  lig        -0.7573
     23 O2         10.6658    7.8025   24.4658 O.co2   1  lig        -0.7573
     24 O3          6.6058    6.4696   20.3999 O.3     1  lig        -0.4913
@<TRIPOS>BOND
     1     1    12    1
     2     2    13    1
     3     3    14    1
     4     4    15    1
     5     5    19    1
     6     6    19    1
     7     7    20    1
     8     8    21    1
     9     9    21    1
    10    10    21    1
    11    11    24    1
    12    12    14   ar
    13    12    16   ar
    14    13    15   ar
    15    13    16   ar
    16    14    17   ar
    17    15    17   ar
    18    16    19    1
    19    17    24    1
    20    18    20    1
    21    18    22    1
    22    18    23    1
    23    19    20    1
    24    20    21    1
@<TRIPOS>SUBSTRUCTURE
     1 lig         1 TEMP              0 ****  ****    0 ROOT


########## Name:		ligand
########## HA_RMSDs:		12.8794
########## HA_RMSDh:		12.7906
########## HA_RMSDm:		8.1200
########## Cluster Size:	1
##########    Grid Score:          -19.737789
##########      Grid_vdw:          -20.167410
##########       Grid_es:            0.429621
##########    Int_energy:            1.870187

@<TRIPOS>MOLECULE
ligand
 24 24 1 0 0
SMALL
No Charge or Current Charge


@<TRIPOS>ATOM
      1 H1         16.4076   18.6389   27.9171 H       1  lig         0.1340
      2 H2         15.4907   14.6979   29.2749 H       1  lig         0.1340
      3 H3         16.5681   17.7782   25.6406 H       1  lig         0.1475
      4 H4         15.7004   13.8130   26.9853 H       1  lig         0.1475
      5 H5         16.4725   16.6265   30.8006 H       1  lig         0.0877
      6 H6         16.2792   18.2546   30.2329 H       1  lig         0.0877
      7 H7         13.8559   16.4190   30.4060 H       1  lig         0.0966
      8 H8         13.7019   18.5634   29.2380 H       1  lig         0.4431
      9 H9         12.8275   18.6585   30.6449 H       1  lig         0.4431
     10 H10        14.3379   19.3559   30.5622 H       1  lig         0.4431
     11 H11        16.1254   16.1938   24.3727 H       1  lig         0.4214
     12 C1         16.2567   17.5792   27.7277 C.ar    1  lig        -0.0999
     13 C2         15.7399   15.3753   28.4614 C.ar    1  lig        -0.0999
     14 C3         16.3407   17.0948   26.4514 C.ar    1  lig        -0.1787
     15 C4         15.8618   14.8682   27.1818 C.ar    1  lig        -0.1787
     16 C5         15.9618   16.7189   28.7405 C.ar    1  lig        -0.1394
     17 C6         16.1828   15.7639   26.1686 C.ar    1  lig         0.1292
     18 C7         14.4892   17.2305   32.2465 C.2     1  lig         0.9321
     19 C8         15.8432   17.2512   30.1560 C.3     1  lig        -0.0452
     20 C9         14.4294   17.2860   30.7372 C.3     1  lig        -0.0740
     21 N1         13.7856   18.5121   30.2672 N.4     1  lig        -0.8252
     22 O1         15.3945   17.8935   32.7480 O.co2   1  lig        -0.7573
     23 O2         13.6999   16.5370   32.9499 O.co2   1  lig        -0.7573
     24 O3         16.2592   15.3901   24.9538 O.3     1  lig        -0.4913
@<TRIPOS>BOND
     1     1    12    1
     2     2    13    1
     3     3    14    1
     4     4    15    1
     5     5    19    1
     6     6    19    1
     7     7    20    1
     8     8    21    1
     9     9    21    1
    10    10    21    1
    11    11    24    1
    12    12    14   ar
    13    12    16   ar
    14    13    15   ar
    15    13    16   ar
    16    14    17   ar
    17    15    17   ar
    18    16    19    1
    19    17    24    1
    20    18    20    1
    21    18    22    1
    22    18    23    1
    23    19    20    1
    24    20    21    1
@<TRIPOS>SUBSTRUCTURE
     1 lig         1 TEMP              0 ****  ****    0 ROOT


########## Name:		ligand
########## HA_RMSDs:		13.8964
########## HA_RMSDh:		13.8117
########## HA_RMSDm:		12.1058
########## Cluster Size:	2
##########    Grid Score:          -19.697773
##########      Grid_vdw:          -19.761259
##########       Grid_es:            0.063486
##########    Int_energy:            1.891759

@<TRIPOS>MOLECULE
ligand
 24 24 1 0 0
SMALL
No Charge or Current Charge


@<TRIPOS>ATOM
      1 H1         24.3828    8.3340   12.5232 H       1  lig         0.1340
      2 H2         23.6964    5.2884   15.4333 H       1  lig         0.1340
      3 H3         26.0597    9.3148   13.9980 H       1  lig         0.1475
      4 H4         25.3529    6.3023   16.9491 H       1  lig         0.1475
      5 H5         21.8988    6.4799   13.3032 H       1  lig         0.0877
      6 H6         22.9896    6.5278   11.9547 H       1  lig         0.0877
      7 H7         22.7455    4.1898   13.9157 H       1  lig         0.0966
      8 H8         24.9802    4.4744   12.9608 H       1  lig         0.4431
      9 H9         24.2629    3.1550   12.2553 H       1  lig         0.4431
     10 H10        24.3336    4.5985   11.4270 H       1  lig         0.4431
     11 H11        26.5916    8.1391   17.2070 H       1  lig         0.4214
     12 C1         24.5811    7.8829   13.4921 C.ar    1  lig        -0.0999
     13 C2         24.2200    6.1905   15.1256 C.ar    1  lig        -0.0999
     14 C3         25.5248    8.4276   14.3188 C.ar    1  lig        -0.1787
     15 C4         25.1424    6.7553   15.9855 C.ar    1  lig        -0.1787
     16 C5         23.9192    6.7640   13.8955 C.ar    1  lig        -0.1394
     17 C6         25.7903    7.9084   15.5582 C.ar    1  lig         0.1292
     18 C7         21.7360    4.1268   12.0653 C.2     1  lig         0.9321
     19 C8         22.8878    6.1392   12.9752 C.3     1  lig        -0.0452
     20 C9         22.8854    4.6112   12.9191 C.3     1  lig        -0.0740
     21 N1         24.1759    4.1841   12.3796 N.4     1  lig        -0.8252
     22 O1         20.8836    3.4818   12.6719 O.co2   1  lig        -0.7573
     23 O2         21.6586    4.3318   10.8200 O.co2   1  lig        -0.7573
     24 O3         26.6942    8.4607   16.2648 O.3     1  lig        -0.4913
@<TRIPOS>BOND
     1     1    12    1
     2     2    13    1
     3     3    14    1
     4     4    15    1
     5     5    19    1
     6     6    19    1
     7     7    20    1
     8     8    21    1
     9     9    21    1
    10    10    21    1
    11    11    24    1
    12    12    14   ar
    13    12    16   ar
    14    13    15   ar
    15    13    16   ar
    16    14    17   ar
    17    15    17   ar
    18    16    19    1
    19    17    24    1
    20    18    20    1
    21    18    22    1
    22    18    23    1
    23    19    20    1
    24    20    21    1
@<TRIPOS>SUBSTRUCTURE
     1 lig         1 TEMP              0 ****  ****    0 ROOT


########## Name:		ligand
########## HA_RMSDs:		15.0877
########## HA_RMSDh:		15.0495
########## HA_RMSDm:		13.3488
########## Cluster Size:	1
##########    Grid Score:          -19.696930
##########      Grid_vdw:          -15.194529
##########       Grid_es:           -4.502402
##########    Int_energy:            5.068168

@<TRIPOS>MOLECULE
ligand
 24 24 1 0 0
SMALL
No Charge or Current Charge


@<TRIPOS>ATOM
      1 H1         21.2066    5.0547   12.0617 H       1  lig         0.1340
      2 H2         25.3804    4.6377   12.8498 H       1  lig         0.1340
      3 H3         21.5242    7.4636   11.8490 H       1  lig         0.1475
      4 H4         25.6995    7.0750   12.6857 H       1  lig         0.1475
      5 H5         22.0516    2.9672   12.3082 H       1  lig         0.0877
      6 H6         23.7059    2.6693   11.8778 H       1  lig         0.0877
      7 H7         22.8352    1.6359   14.0920 H       1  lig         0.0966
      8 H8         21.7832    3.6950   14.8920 H       1  lig         0.4431
      9 H9         22.9631    3.2458   15.9687 H       1  lig         0.4431
     10 H10        23.2576    4.4772   14.8864 H       1  lig         0.4431
     11 H11        24.6621    8.9145   12.0452 H       1  lig         0.4214
     12 C1         22.1943    5.4848   12.2069 C.ar    1  lig        -0.0999
     13 C2         24.5253    5.2750   12.6369 C.ar    1  lig        -0.0999
     14 C3         22.3763    6.8347   12.0828 C.ar    1  lig        -0.1787
     15 C4         24.7133    6.6414   12.5534 C.ar    1  lig        -0.1787
     16 C5         23.2686    4.6989   12.4913 C.ar    1  lig        -0.1394
     17 C6         23.5970    7.4235   12.2815 C.ar    1  lig         0.1292
     18 C7         24.8127    2.3619   14.1901 C.2     1  lig         0.9321
     19 C8         23.0807    3.1982   12.6074 C.3     1  lig        -0.0452
     20 C9         23.3334    2.6014   13.9923 C.3     1  lig        -0.0740
     21 N1         22.8007    3.5360   14.9830 N.4     1  lig        -0.8252
     22 O1         25.2041    1.2525   13.8342 O.co2   1  lig        -0.7573
     23 O2         25.5927    3.2113   14.7086 O.co2   1  lig        -0.7573
     24 O3         23.6920    8.6845   12.1327 O.3     1  lig        -0.4913
@<TRIPOS>BOND
     1     1    12    1
     2     2    13    1
     3     3    14    1
     4     4    15    1
     5     5    19    1
     6     6    19    1
     7     7    20    1
     8     8    21    1
     9     9    21    1
    10    10    21    1
    11    11    24    1
    12    12    14   ar
    13    12    16   ar
    14    13    15   ar
    15    13    16   ar
    16    14    17   ar
    17    15    17   ar
    18    16    19    1
    19    17    24    1
    20    18    20    1
    21    18    22    1
    22    18    23    1
    23    19    20    1
    24    20    21    1
@<TRIPOS>SUBSTRUCTURE
     1 lig         1 TEMP              0 ****  ****    0 ROOT


########## Name:		ligand
########## HA_RMSDs:		10.4305
########## HA_RMSDh:		10.3378
########## HA_RMSDm:		8.5427
########## Cluster Size:	1
##########    Grid Score:          -19.693558
##########      Grid_vdw:          -17.122082
##########       Grid_es:           -2.571476
##########    Int_energy:            1.374108

@<TRIPOS>MOLECULE
ligand
 24 24 1 0 0
SMALL
No Charge or Current Charge


@<TRIPOS>ATOM
      1 H1         14.1758    9.1945   22.2535 H       1  lig         0.1340
      2 H2         12.4967   12.5231   24.3312 H       1  lig         0.1340
      3 H3         11.9926    8.7624   21.2555 H       1  lig         0.1475
      4 H4         10.2776   12.0623   23.3657 H       1  lig         0.1475
      5 H5         14.7431   11.0072   25.0648 H       1  lig         0.0877
      6 H6         15.5634   10.4112   23.6568 H       1  lig         0.0877
      7 H7         14.5881   13.2712   23.5663 H       1  lig         0.0966
      8 H8         15.7033   12.1886   21.6766 H       1  lig         0.4431
      9 H9         16.7008   13.3697   22.2791 H       1  lig         0.4431
     10 H10        16.9950   11.7723   22.6483 H       1  lig         0.4431
     11 H11         9.2736   10.8350   21.8436 H       1  lig         0.4214
     12 C1         13.3292    9.8262   22.5104 C.ar    1  lig        -0.0999
     13 C2         12.3737   11.6819   23.6531 C.ar    1  lig        -0.0999
     14 C3         12.1051    9.5894   21.9480 C.ar    1  lig        -0.1787
     15 C4         11.1236   11.4276   23.1220 C.ar    1  lig        -0.1787
     16 C5         13.4672   10.8711   23.3716 C.ar    1  lig        -0.1394
     17 C6         11.0050   10.3432   22.2608 C.ar    1  lig         0.1292
     18 C7         16.1850   13.0205   24.9206 C.2     1  lig         0.9321
     19 C8         14.8265   11.1557   23.9818 C.3     1  lig        -0.0452
     20 C9         15.3934   12.5516   23.7213 C.3     1  lig        -0.0740
     21 N1         16.2256   12.4765   22.5211 N.4     1  lig        -0.8252
     22 O1         17.1481   12.3127   25.2072 O.co2   1  lig        -0.7573
     23 O2         15.8761   14.0380   25.6047 O.co2   1  lig        -0.7573
     24 O3          9.9023   10.0727   21.6844 O.3     1  lig        -0.4913
@<TRIPOS>BOND
     1     1    12    1
     2     2    13    1
     3     3    14    1
     4     4    15    1
     5     5    19    1
     6     6    19    1
     7     7    20    1
     8     8    21    1
     9     9    21    1
    10    10    21    1
    11    11    24    1
    12    12    14   ar
    13    12    16   ar
    14    13    15   ar
    15    13    16   ar
    16    14    17   ar
    17    15    17   ar
    18    16    19    1
    19    17    24    1
    20    18    20    1
    21    18    22    1
    22    18    23    1
    23    19    20    1
    24    20    21    1
@<TRIPOS>SUBSTRUCTURE
     1 lig         1 TEMP              0 ****  ****    0 ROOT


########## Name:		ligand
########## HA_RMSDs:		13.5426
########## HA_RMSDh:		13.4689
########## HA_RMSDm:		11.9575
########## Cluster Size:	1
##########    Grid Score:          -19.680094
##########      Grid_vdw:          -16.475355
##########       Grid_es:           -3.204739
##########    Int_energy:            2.782335

@<TRIPOS>MOLECULE
ligand
 24 24 1 0 0
SMALL
No Charge or Current Charge


@<TRIPOS>ATOM
      1 H1         11.2216    9.6364   22.1012 H       1  lig         0.1340
      2 H2          7.5846    8.3611   23.9346 H       1  lig         0.1340
      3 H3         10.1549    9.4200   19.9185 H       1  lig         0.1475
      4 H4          6.5167    8.0923   21.7308 H       1  lig         0.1475
      5 H5          9.4728    8.6654   25.2514 H       1  lig         0.0877
      6 H6         11.0627    8.5661   24.5638 H       1  lig         0.0877
      7 H7         11.2745   10.9807   24.4290 H       1  lig         0.0966
      8 H8         11.5121    9.9722   26.6456 H       1  lig         0.4431
      9 H9         10.8502   11.4842   26.8158 H       1  lig         0.4431
     10 H10         9.8744   10.1384   26.9215 H       1  lig         0.4431
     11 H11         8.5385    8.8296   18.8468 H       1  lig         0.4214
     12 C1         10.1929    9.2913   22.0338 C.ar    1  lig        -0.0999
     13 C2          8.1529    8.5854   23.0349 C.ar    1  lig        -0.0999
     14 C3          9.5906    9.1743   20.8114 C.ar    1  lig        -0.1787
     15 C4          7.5472    8.4251   21.8033 C.ar    1  lig        -0.1787
     16 C5          9.4774    8.9907   23.1520 C.ar    1  lig        -0.1394
     17 C6          8.3055    8.7199   20.6764 C.ar    1  lig         0.1292
     18 C7          9.2315   11.4602   24.6375 C.2     1  lig         0.9321
     19 C8         10.1297    9.1403   24.5133 C.3     1  lig        -0.0452
     20 C9         10.4129   10.5746   24.9611 C.3     1  lig        -0.0740
     21 N1         10.6886   10.5458   26.3970 N.4     1  lig        -0.8252
     22 O1          8.1610   11.0769   25.1042 O.co2   1  lig        -0.7573
     23 O2          9.3145   12.4973   23.9189 O.co2   1  lig        -0.7573
     24 O3          7.8070    8.6531   19.5066 O.3     1  lig        -0.4913
@<TRIPOS>BOND
     1     1    12    1
     2     2    13    1
     3     3    14    1
     4     4    15    1
     5     5    19    1
     6     6    19    1
     7     7    20    1
     8     8    21    1
     9     9    21    1
    10    10    21    1
    11    11    24    1
    12    12    14   ar
    13    12    16   ar
    14    13    15   ar
    15    13    16   ar
    16    14    17   ar
    17    15    17   ar
    18    16    19    1
    19    17    24    1
    20    18    20    1
    21    18    22    1
    22    18    23    1
    23    19    20    1
    24    20    21    1
@<TRIPOS>SUBSTRUCTURE
     1 lig         1 TEMP              0 ****  ****    0 ROOT


########## Name:		ligand
########## HA_RMSDs:		13.0424
########## HA_RMSDh:		12.9788
########## HA_RMSDm:		11.1114
########## Cluster Size:	1
##########    Grid Score:          -19.664095
##########      Grid_vdw:          -19.471493
##########       Grid_es:           -0.192602
##########    Int_energy:            4.332459

@<TRIPOS>MOLECULE
ligand
 24 24 1 0 0
SMALL
No Charge or Current Charge


@<TRIPOS>ATOM
      1 H1         10.0103    8.1999   19.5130 H       1  lig         0.1340
      2 H2          8.9209    9.9855   23.2332 H       1  lig         0.1340
      3 H3         12.2641    9.0913   19.7864 H       1  lig         0.1475
      4 H4         11.1812   10.9308   23.4915 H       1  lig         0.1475
      5 H5          7.3236    8.8379   22.0391 H       1  lig         0.0877
      6 H6          7.4234    8.9155   20.3086 H       1  lig         0.0877
      7 H7          8.1416    6.6069   20.1339 H       1  lig         0.0966
      8 H8          5.7787    6.9842   20.6448 H       1  lig         0.4431
      9 H9          6.2607    5.5694   21.3651 H       1  lig         0.4431
     10 H10         6.1041    6.9514   22.2815 H       1  lig         0.4431
     11 H11        13.1398   11.0450   22.5336 H       1  lig         0.4214
     12 C1         10.2517    8.8015   20.3856 C.ar    1  lig        -0.0999
     13 C2          9.6684    9.7993   22.4657 C.ar    1  lig        -0.0999
     14 C3         11.5162    9.2981   20.5442 C.ar    1  lig        -0.1787
     15 C4         10.9313   10.3394   22.6164 C.ar    1  lig        -0.1787
     16 C5          9.3193    9.0559   21.3441 C.ar    1  lig        -0.1394
     17 C6         11.8592   10.0813   21.6143 C.ar    1  lig         0.1292
     18 C7          8.7464    6.3391   22.1362 C.2     1  lig         0.9321
     19 C8          7.9208    8.4895   21.1883 C.3     1  lig        -0.0452
     20 C9          7.8251    6.9652   21.1145 C.3     1  lig        -0.0740
     21 N1          6.4295    6.5957   21.3480 N.4     1  lig        -0.8252
     22 O1          8.7822    6.9209   23.2183 O.co2   1  lig        -0.7573
     23 O2          9.4550    5.3183   21.9024 O.co2   1  lig        -0.7573
     24 O3         13.0607   10.4938   21.7019 O.3     1  lig        -0.4913
@<TRIPOS>BOND
     1     1    12    1
     2     2    13    1
     3     3    14    1
     4     4    15    1
     5     5    19    1
     6     6    19    1
     7     7    20    1
     8     8    21    1
     9     9    21    1
    10    10    21    1
    11    11    24    1
    12    12    14   ar
    13    12    16   ar
    14    13    15   ar
    15    13    16   ar
    16    14    17   ar
    17    15    17   ar
    18    16    19    1
    19    17    24    1
    20    18    20    1
    21    18    22    1
    22    18    23    1
    23    19    20    1
    24    20    21    1
@<TRIPOS>SUBSTRUCTURE
     1 lig         1 TEMP              0 ****  ****    0 ROOT


########## Name:		ligand
########## HA_RMSDs:		14.3224
########## HA_RMSDh:		14.3109
########## HA_RMSDm:		12.7357
########## Cluster Size:	2
##########    Grid Score:          -19.661966
##########      Grid_vdw:          -15.122655
##########       Grid_es:           -4.539311
##########    Int_energy:            1.799912

@<TRIPOS>MOLECULE
ligand
 24 24 1 0 0
SMALL
No Charge or Current Charge


@<TRIPOS>ATOM
      1 H1         25.2176    7.1886   14.8941 H       1  lig         0.1340
      2 H2         21.9339    5.0269   13.2328 H       1  lig         0.1340
      3 H3         24.8808    8.9221   13.2117 H       1  lig         0.1475
      4 H4         21.6197    6.7497   11.5000 H       1  lig         0.1475
      5 H5         24.7445    5.1294   15.7327 H       1  lig         0.0877
      6 H6         23.0336    4.9890   15.9851 H       1  lig         0.0877
      7 H7         24.0957    3.4561   13.6318 H       1  lig         0.0966
      8 H8         21.7714    3.3843   14.3930 H       1  lig         0.4431
      9 H9         22.4556    1.8909   14.6269 H       1  lig         0.4431
     10 H10        22.2622    2.9228   15.9201 H       1  lig         0.4431
     11 H11        22.3508    8.6941   10.8306 H       1  lig         0.4214
     12 C1         24.4303    7.0771   14.1529 C.ar    1  lig        -0.0999
     13 C2         22.5919    5.8926   13.2150 C.ar    1  lig        -0.0999
     14 C3         24.2357    8.0503   13.2117 C.ar    1  lig        -0.1787
     15 C4         22.4119    6.8501   12.2351 C.ar    1  lig        -0.1787
     16 C5         23.6120    5.9894   14.1544 C.ar    1  lig        -0.1394
     17 C6         23.2730    7.9411   12.2435 C.ar    1  lig         0.1292
     18 C7         24.9223    2.7000   15.4184 C.2     1  lig         0.9321
     19 C8         23.8052    4.9164   15.2091 C.3     1  lig        -0.0452
     20 C9         23.8473    3.4774   14.6939 C.3     1  lig        -0.0740
     21 N1         22.5238    2.8915   14.9029 N.4     1  lig        -0.8252
     22 O1         26.0267    2.7293   14.8798 O.co2   1  lig        -0.7573
     23 O2         24.7118    2.0404   16.4764 O.co2   1  lig        -0.7573
     24 O3         23.1409    8.8954   11.4110 O.3     1  lig        -0.4913
@<TRIPOS>BOND
     1     1    12    1
     2     2    13    1
     3     3    14    1
     4     4    15    1
     5     5    19    1
     6     6    19    1
     7     7    20    1
     8     8    21    1
     9     9    21    1
    10    10    21    1
    11    11    24    1
    12    12    14   ar
    13    12    16   ar
    14    13    15   ar
    15    13    16   ar
    16    14    17   ar
    17    15    17   ar
    18    16    19    1
    19    17    24    1
    20    18    20    1
    21    18    22    1
    22    18    23    1
    23    19    20    1
    24    20    21    1
@<TRIPOS>SUBSTRUCTURE
     1 lig         1 TEMP              0 ****  ****    0 ROOT


########## Name:		ligand
########## HA_RMSDs:		11.3552
########## HA_RMSDh:		11.2966
########## HA_RMSDm:		9.8538
########## Cluster Size:	1
##########    Grid Score:          -19.649603
##########      Grid_vdw:          -18.625759
##########       Grid_es:           -1.023844
##########    Int_energy:            1.521673

@<TRIPOS>MOLECULE
ligand
 24 24 1 0 0
SMALL
No Charge or Current Charge


@<TRIPOS>ATOM
      1 H1         10.1516   11.5177   22.8941 H       1  lig         0.1340
      2 H2         13.2950    9.4245   20.9057 H       1  lig         0.1340
      3 H3         11.7914   12.4220   24.4569 H       1  lig         0.1475
      4 H4         14.9490   10.2944   22.5109 H       1  lig         0.1475
      5 H5          9.7206   10.4928   20.8645 H       1  lig         0.0877
      6 H6         10.9739    9.9346   19.8023 H       1  lig         0.0877
      7 H7         10.9683    7.8232   21.5261 H       1  lig         0.0966
      8 H8         10.6060    7.8024   19.1063 H       1  lig         0.4431
      9 H9          9.4548    6.8486   19.8262 H       1  lig         0.4431
     10 H10         9.0539    8.3811   19.3111 H       1  lig         0.4431
     11 H11        15.1730   11.6231   24.2273 H       1  lig         0.4214
     12 C1         11.1978   11.2369   22.8029 C.ar    1  lig        -0.0999
     13 C2         12.9671   10.0847   21.7052 C.ar    1  lig        -0.0999
     14 C3         12.1203   11.7468   23.6745 C.ar    1  lig        -0.1787
     15 C4         13.9013   10.5621   22.6045 C.ar    1  lig        -0.1787
     16 C5         11.6172   10.3972   21.8170 C.ar    1  lig        -0.1394
     17 C6         13.4444   11.4018   23.6134 C.ar    1  lig         0.1292
     18 C7          8.9938    8.3690   22.0265 C.2     1  lig         0.9321
     19 C8         10.6048    9.8456   20.8312 C.3     1  lig        -0.0452
     20 C9         10.1634    8.4011   21.0696 C.3     1  lig        -0.0740
     21 N1          9.8153    7.8229   19.7722 N.4     1  lig        -0.8252
     22 O1          9.3005    8.4568   23.2134 O.co2   1  lig        -0.7573
     23 O2          7.7932    8.2306   21.6548 O.co2   1  lig        -0.7573
     24 O3         14.2466   11.9300   24.4494 O.3     1  lig        -0.4913
@<TRIPOS>BOND
     1     1    12    1
     2     2    13    1
     3     3    14    1
     4     4    15    1
     5     5    19    1
     6     6    19    1
     7     7    20    1
     8     8    21    1
     9     9    21    1
    10    10    21    1
    11    11    24    1
    12    12    14   ar
    13    12    16   ar
    14    13    15   ar
    15    13    16   ar
    16    14    17   ar
    17    15    17   ar
    18    16    19    1
    19    17    24    1
    20    18    20    1
    21    18    22    1
    22    18    23    1
    23    19    20    1
    24    20    21    1
@<TRIPOS>SUBSTRUCTURE
     1 lig         1 TEMP              0 ****  ****    0 ROOT


########## Name:		ligand
########## HA_RMSDs:		13.4415
########## HA_RMSDh:		13.3734
########## HA_RMSDm:		11.1917
########## Cluster Size:	1
##########    Grid Score:          -19.644661
##########      Grid_vdw:          -16.467089
##########       Grid_es:           -3.177573
##########    Int_energy:            3.128949

@<TRIPOS>MOLECULE
ligand
 24 24 1 0 0
SMALL
No Charge or Current Charge


@<TRIPOS>ATOM
      1 H1          7.9373    8.6939   22.2299 H       1  lig         0.1340
      2 H2         10.3794   11.8142   23.8159 H       1  lig         0.1340
      3 H3          9.6557    8.2483   20.5574 H       1  lig         0.1475
      4 H4         12.0969   11.4026   22.0984 H       1  lig         0.1475
      5 H5          7.9728   11.6456   24.3580 H       1  lig         0.0877
      6 H6          6.9816   10.3446   23.7789 H       1  lig         0.0877
      7 H7          7.4287   10.1700   26.2251 H       1  lig         0.0966
      8 H8          9.6747   11.1383   26.1567 H       1  lig         0.4431
      9 H9          9.7606    9.6418   26.8681 H       1  lig         0.4431
     10 H10        10.2359    9.8315   25.2830 H       1  lig         0.4431
     11 H11        12.2819   10.3339   20.0300 H       1  lig         0.4214
     12 C1          8.8405    9.2984   22.2082 C.ar    1  lig        -0.0999
     13 C2         10.2217   11.0286   23.0806 C.ar    1  lig        -0.0999
     14 C3          9.8082    9.0472   21.2749 C.ar    1  lig        -0.1787
     15 C4         11.1879   10.8099   22.1173 C.ar    1  lig        -0.1787
     16 C5          9.0407   10.2960   23.1123 C.ar    1  lig        -0.1394
     17 C6         10.9505    9.7986   21.1938 C.ar    1  lig         0.1292
     18 C7          7.9596    8.3498   25.3020 C.2     1  lig         0.9321
     19 C8          7.9835   10.5663   24.1660 C.3     1  lig        -0.0452
     20 C9          8.1675    9.8344   25.4958 C.3     1  lig        -0.0740
     21 N1          9.5134   10.1317   25.9844 N.4     1  lig        -0.8252
     22 O1          6.7836    7.9927   25.3040 O.co2   1  lig        -0.7573
     23 O2          8.9089    7.5236   25.1791 O.co2   1  lig        -0.7573
     24 O3         11.8134    9.4944   20.3083 O.3     1  lig        -0.4913
@<TRIPOS>BOND
     1     1    12    1
     2     2    13    1
     3     3    14    1
     4     4    15    1
     5     5    19    1
     6     6    19    1
     7     7    20    1
     8     8    21    1
     9     9    21    1
    10    10    21    1
    11    11    24    1
    12    12    14   ar
    13    12    16   ar
    14    13    15   ar
    15    13    16   ar
    16    14    17   ar
    17    15    17   ar
    18    16    19    1
    19    17    24    1
    20    18    20    1
    21    18    22    1
    22    18    23    1
    23    19    20    1
    24    20    21    1
@<TRIPOS>SUBSTRUCTURE
     1 lig         1 TEMP              0 ****  ****    0 ROOT


########## Name:		ligand
########## HA_RMSDs:		12.8651
########## HA_RMSDh:		12.7812
########## HA_RMSDm:		10.5604
########## Cluster Size:	1
##########    Grid Score:          -19.630810
##########      Grid_vdw:          -18.472904
##########       Grid_es:           -1.157905
##########    Int_energy:            2.113174

@<TRIPOS>MOLECULE
ligand
 24 24 1 0 0
SMALL
No Charge or Current Charge


@<TRIPOS>ATOM
      1 H1         10.6921    9.2818   20.4995 H       1  lig         0.1340
      2 H2          7.9626    9.5564   23.7691 H       1  lig         0.1340
      3 H3          9.1369    7.7767   19.3747 H       1  lig         0.1475
      4 H4          6.4100    7.9975   22.6609 H       1  lig         0.1475
      5 H5         10.3276   11.4135   22.4003 H       1  lig         0.0877
      6 H6         10.0573   10.6505   23.9350 H       1  lig         0.0877
      7 H7         12.1264    9.4904   22.0280 H       1  lig         0.0966
      8 H8         11.4361    8.2488   24.0201 H       1  lig         0.4431
      9 H9         12.9940    8.7778   24.2347 H       1  lig         0.4431
     10 H10        11.7392    9.5789   24.9817 H       1  lig         0.4431
     11 H11         6.2640    6.6189   20.9209 H       1  lig         0.4214
     12 C1          9.7608    9.0037   20.9865 C.ar    1  lig        -0.0999
     13 C2          8.2209    9.1479   22.7949 C.ar    1  lig        -0.0999
     14 C3          8.8845    8.1642   20.3557 C.ar    1  lig        -0.1787
     15 C4          7.3466    8.2692   22.1844 C.ar    1  lig        -0.1787
     16 C5          9.4350    9.4947   22.2135 C.ar    1  lig        -0.1394
     17 C6          7.7116    7.7668   20.9410 C.ar    1  lig         0.1292
     18 C7         12.7536   11.2155   23.0660 C.2     1  lig         0.9321
     19 C8         10.3901   10.4451   22.9104 C.3     1  lig        -0.0452
     20 C9         11.8542   10.0062   22.9500 C.3     1  lig        -0.0740
     21 N1         12.0165    9.1018   24.0876 N.4     1  lig        -0.8252
     22 O1         12.3622   12.0710   23.8569 O.co2   1  lig        -0.7573
     23 O2         13.8100   11.3657   22.3875 O.co2   1  lig        -0.7573
     24 O3          6.9387    6.9961   20.2852 O.3     1  lig        -0.4913
@<TRIPOS>BOND
     1     1    12    1
     2     2    13    1
     3     3    14    1
     4     4    15    1
     5     5    19    1
     6     6    19    1
     7     7    20    1
     8     8    21    1
     9     9    21    1
    10    10    21    1
    11    11    24    1
    12    12    14   ar
    13    12    16   ar
    14    13    15   ar
    15    13    16   ar
    16    14    17   ar
    17    15    17   ar
    18    16    19    1
    19    17    24    1
    20    18    20    1
    21    18    22    1
    22    18    23    1
    23    19    20    1
    24    20    21    1
@<TRIPOS>SUBSTRUCTURE
     1 lig         1 TEMP              0 ****  ****    0 ROOT


########## Name:		ligand
########## HA_RMSDs:		12.7915
########## HA_RMSDh:		12.7523
########## HA_RMSDm:		10.0942
########## Cluster Size:	1
##########    Grid Score:          -19.626099
##########      Grid_vdw:          -18.349550
##########       Grid_es:           -1.276548
##########    Int_energy:            1.130415

@<TRIPOS>MOLECULE
ligand
 24 24 1 0 0
SMALL
No Charge or Current Charge


@<TRIPOS>ATOM
      1 H1         11.7728   12.5270   25.2405 H       1  lig         0.1340
      2 H2          9.1200   10.5014   22.5806 H       1  lig         0.1340
      3 H3         13.6178   12.0216   23.7274 H       1  lig         0.1475
      4 H4         10.9869    9.9443   21.0728 H       1  lig         0.1475
      5 H5          9.2950   12.8957   25.2637 H       1  lig         0.0877
      6 H6          8.2280   11.8317   24.4034 H       1  lig         0.0877
      7 H7         10.0432   10.6577   26.5366 H       1  lig         0.0966
      8 H8          8.6982    9.2264   25.0775 H       1  lig         0.4431
      9 H9          8.0818    9.1488   26.6160 H       1  lig         0.4431
     10 H10         7.3209   10.0848   25.4673 H       1  lig         0.4431
     11 H11        13.1241   10.7122   20.6407 H       1  lig         0.4214
     12 C1         11.5882   11.9554   24.3345 C.ar    1  lig        -0.0999
     13 C2         10.1261   10.8277   22.8334 C.ar    1  lig        -0.0999
     14 C3         12.6200   11.6752   23.4815 C.ar    1  lig        -0.1787
     15 C4         11.1675   10.5045   21.9847 C.ar    1  lig        -0.1787
     16 C5         10.3360   11.5265   24.0167 C.ar    1  lig        -0.1394
     17 C6         12.4392   10.9373   22.3418 C.ar    1  lig         0.1292
     18 C7          8.4152   11.7506   27.3126 C.2     1  lig         0.9321
     19 C8          9.1815   11.8529   24.9448 C.3     1  lig        -0.0452
     20 C9          9.0581   10.9715   26.1882 C.3     1  lig        -0.0740
     21 N1          8.2665    9.7971   25.8237 N.4     1  lig        -0.8252
     22 O1          9.1891   12.4589   27.9529 O.co2   1  lig        -0.7573
     23 O2          7.1879   11.6670   27.6053 O.co2   1  lig        -0.7573
     24 O3         13.4448   10.7309   21.5886 O.3     1  lig        -0.4913
@<TRIPOS>BOND
     1     1    12    1
     2     2    13    1
     3     3    14    1
     4     4    15    1
     5     5    19    1
     6     6    19    1
     7     7    20    1
     8     8    21    1
     9     9    21    1
    10    10    21    1
    11    11    24    1
    12    12    14   ar
    13    12    16   ar
    14    13    15   ar
    15    13    16   ar
    16    14    17   ar
    17    15    17   ar
    18    16    19    1
    19    17    24    1
    20    18    20    1
    21    18    22    1
    22    18    23    1
    23    19    20    1
    24    20    21    1
@<TRIPOS>SUBSTRUCTURE
     1 lig         1 TEMP              0 ****  ****    0 ROOT


########## Name:		ligand
########## HA_RMSDs:		14.3065
########## HA_RMSDh:		14.3032
########## HA_RMSDm:		12.5385
########## Cluster Size:	1
##########    Grid Score:          -19.622314
##########      Grid_vdw:          -17.323444
##########       Grid_es:           -2.298870
##########    Int_energy:            3.108647

@<TRIPOS>MOLECULE
ligand
 24 24 1 0 0
SMALL
No Charge or Current Charge


@<TRIPOS>ATOM
      1 H1          7.5261    9.0718   23.3062 H       1  lig         0.1340
      2 H2          8.5736    7.0574   19.6923 H       1  lig         0.1340
      3 H3          9.5280   10.4462   23.0779 H       1  lig         0.1475
      4 H4         10.6233    8.4079   19.4821 H       1  lig         0.1475
      5 H5          5.9150    7.7325   22.1359 H       1  lig         0.0877
      6 H6          6.2707    6.8831   20.6654 H       1  lig         0.0877
      7 H7          5.9494    5.1933   22.3313 H       1  lig         0.0966
      8 H8          6.2196    6.6859   24.2511 H       1  lig         0.4431
      9 H9          7.1816    5.3523   24.4729 H       1  lig         0.4431
     10 H10         7.8617    6.7872   23.9698 H       1  lig         0.4431
     11 H11        11.6905   10.0925   20.3757 H       1  lig         0.4214
     12 C1          8.1991    8.9120   22.4676 C.ar    1  lig        -0.0999
     13 C2          8.7986    7.8074   20.4470 C.ar    1  lig        -0.0999
     14 C3          9.3195    9.6849   22.3342 C.ar    1  lig        -0.1787
     15 C4          9.9540    8.5552   20.3238 C.ar    1  lig        -0.1787
     16 C5          7.9370    7.9641   21.5265 C.ar    1  lig        -0.1394
     17 C6         10.2086    9.5027   21.3083 C.ar    1  lig         0.1292
     18 C7          8.0085    5.0241   21.9089 C.2     1  lig         0.9321
     19 C8          6.6843    7.1182   21.6535 C.3     1  lig        -0.0452
     20 C9          6.8374    5.8172   22.4421 C.3     1  lig        -0.0740
     21 N1          7.0203    6.1695   23.8497 N.4     1  lig        -0.8252
     22 O1          7.7315    4.2576   20.9889 O.co2   1  lig        -0.7573
     23 O2          9.1785    5.1062   22.3813 O.co2   1  lig        -0.7573
     24 O3         11.2211   10.2719   21.2412 O.3     1  lig        -0.4913
@<TRIPOS>BOND
     1     1    12    1
     2     2    13    1
     3     3    14    1
     4     4    15    1
     5     5    19    1
     6     6    19    1
     7     7    20    1
     8     8    21    1
     9     9    21    1
    10    10    21    1
    11    11    24    1
    12    12    14   ar
    13    12    16   ar
    14    13    15   ar
    15    13    16   ar
    16    14    17   ar
    17    15    17   ar
    18    16    19    1
    19    17    24    1
    20    18    20    1
    21    18    22    1
    22    18    23    1
    23    19    20    1
    24    20    21    1
@<TRIPOS>SUBSTRUCTURE
     1 lig         1 TEMP              0 ****  ****    0 ROOT


########## Name:		ligand
########## HA_RMSDs:		14.4280
########## HA_RMSDh:		14.3920
########## HA_RMSDm:		12.1803
########## Cluster Size:	1
##########    Grid Score:          -19.619408
##########      Grid_vdw:          -14.437366
##########       Grid_es:           -5.182041
##########    Int_energy:            3.084591

@<TRIPOS>MOLECULE
ligand
 24 24 1 0 0
SMALL
No Charge or Current Charge


@<TRIPOS>ATOM
      1 H1         11.9838   11.2834   26.6028 H       1  lig         0.1340
      2 H2          8.0201    9.8166   27.1973 H       1  lig         0.1340
      3 H3         11.4684   11.6142   24.2419 H       1  lig         0.1475
      4 H4          7.5088   10.1013   24.8043 H       1  lig         0.1475
      5 H5          9.9046    9.3659   28.8281 H       1  lig         0.0877
      6 H6         11.4279   10.1822   28.6733 H       1  lig         0.0877
      7 H7         10.3441   11.3539   30.4201 H       1  lig         0.0966
      8 H8          8.1497   10.3432   30.0328 H       1  lig         0.4431
      9 H9          7.9602   11.9836   30.1946 H       1  lig         0.4431
     10 H10         7.9260   11.2934   28.6790 H       1  lig         0.4431
     11 H11        10.1726   11.2623   22.6973 H       1  lig         0.4214
     12 C1         11.0022   11.0146   26.2207 C.ar    1  lig        -0.0999
     13 C2          8.7854   10.2071   26.5306 C.ar    1  lig        -0.0999
     14 C3         10.7088   11.2042   24.8983 C.ar    1  lig        -0.1787
     15 C4          8.4911   10.3569   25.1889 C.ar    1  lig        -0.1787
     16 C5         10.0423   10.5084   27.0423 C.ar    1  lig        -0.1394
     17 C6          9.4946   10.8572   24.3676 C.ar    1  lig         0.1292
     18 C7         10.1930   12.7771   28.8714 C.2     1  lig         0.9321
     19 C8         10.3510   10.3169   28.5150 C.3     1  lig        -0.0452
     20 C9          9.8537   11.4216   29.4479 C.3     1  lig        -0.0740
     21 N1          8.4105   11.2501   29.6103 N.4     1  lig        -0.8252
     22 O1         11.3227   13.1798   29.1400 O.co2   1  lig        -0.7573
     23 O2          9.3805   13.4687   28.1928 O.co2   1  lig        -0.7573
     24 O3          9.2893   11.0786   23.1307 O.3     1  lig        -0.4913
@<TRIPOS>BOND
     1     1    12    1
     2     2    13    1
     3     3    14    1
     4     4    15    1
     5     5    19    1
     6     6    19    1
     7     7    20    1
     8     8    21    1
     9     9    21    1
    10    10    21    1
    11    11    24    1
    12    12    14   ar
    13    12    16   ar
    14    13    15   ar
    15    13    16   ar
    16    14    17   ar
    17    15    17   ar
    18    16    19    1
    19    17    24    1
    20    18    20    1
    21    18    22    1
    22    18    23    1
    23    19    20    1
    24    20    21    1
@<TRIPOS>SUBSTRUCTURE
     1 lig         1 TEMP              0 ****  ****    0 ROOT


########## Name:		ligand
########## HA_RMSDs:		14.4026
########## HA_RMSDh:		14.3503
########## HA_RMSDm:		11.5787
########## Cluster Size:	1
##########    Grid Score:          -19.615416
##########      Grid_vdw:          -17.332661
##########       Grid_es:           -2.282755
##########    Int_energy:            3.219634

@<TRIPOS>MOLECULE
ligand
 24 24 1 0 0
SMALL
No Charge or Current Charge


@<TRIPOS>ATOM
      1 H1         24.0347    8.4552   13.5242 H       1  lig         0.1340
      2 H2         26.0311    4.8846   12.3072 H       1  lig         0.1340
      3 H3         21.8996    7.3925   13.0134 H       1  lig         0.1475
      4 H4         23.8810    3.8230   11.7421 H       1  lig         0.1475
      5 H5         27.2405    7.0109   12.5507 H       1  lig         0.0877
      6 H6         26.4624    8.4734   13.0666 H       1  lig         0.0877
      7 H7         27.9442    7.7073   14.8434 H       1  lig         0.0966
      8 H8         27.9419    5.3482   14.1941 H       1  lig         0.4431
      9 H9         27.5469    5.4592   15.8018 H       1  lig         0.4431
     10 H10        26.3505    5.1946   14.6734 H       1  lig         0.4431
     11 H11        20.9100    5.7099   12.4664 H       1  lig         0.4214
     12 C1         24.0154    7.4429   13.1287 C.ar    1  lig        -0.0999
     13 C2         25.1071    5.4396   12.4523 C.ar    1  lig        -0.0999
     14 C3         22.8193    6.8426   12.8465 C.ar    1  lig        -0.1787
     15 C4         23.9068    4.8378   12.1261 C.ar    1  lig        -0.1787
     16 C5         25.1665    6.7450   12.9263 C.ar    1  lig        -0.1394
     17 C6         22.7474    5.5786   12.3236 C.ar    1  lig         0.1292
     18 C7         26.0099    7.6929   15.6833 C.2     1  lig         0.9321
     19 C8         26.4965    7.3942   13.2588 C.3     1  lig        -0.0452
     20 C9         27.0109    7.1663   14.6805 C.3     1  lig        -0.0740
     21 N1         27.2372    5.7310   14.8466 N.4     1  lig        -0.8252
     22 O1         26.1529    8.8781   15.9757 O.co2   1  lig        -0.7573
     23 O2         25.1120    6.9773   16.2130 O.co2   1  lig        -0.7573
     24 O3         21.5970    5.0800   12.1018 O.3     1  lig        -0.4913
@<TRIPOS>BOND
     1     1    12    1
     2     2    13    1
     3     3    14    1
     4     4    15    1
     5     5    19    1
     6     6    19    1
     7     7    20    1
     8     8    21    1
     9     9    21    1
    10    10    21    1
    11    11    24    1
    12    12    14   ar
    13    12    16   ar
    14    13    15   ar
    15    13    16   ar
    16    14    17   ar
    17    15    17   ar
    18    16    19    1
    19    17    24    1
    20    18    20    1
    21    18    22    1
    22    18    23    1
    23    19    20    1
    24    20    21    1
@<TRIPOS>SUBSTRUCTURE
     1 lig         1 TEMP              0 ****  ****    0 ROOT


########## Name:		ligand
########## HA_RMSDs:		14.8240
########## HA_RMSDh:		14.8240
########## HA_RMSDm:		13.1919
########## Cluster Size:	1
##########    Grid Score:          -19.597807
##########      Grid_vdw:          -13.060888
##########       Grid_es:           -6.536919
##########    Int_energy:            3.712232

@<TRIPOS>MOLECULE
ligand
 24 24 1 0 0
SMALL
No Charge or Current Charge


@<TRIPOS>ATOM
      1 H1         25.1878    5.1030   15.7850 H       1  lig         0.1340
      2 H2         22.9161    5.2619   12.1754 H       1  lig         0.1340
      3 H3         25.5364    7.5119   15.6291 H       1  lig         0.1475
      4 H4         23.3063    7.6869   11.9850 H       1  lig         0.1475
      5 H5         24.7815    3.0346   13.9443 H       1  lig         0.0877
      6 H6         23.4997    3.2560   15.0926 H       1  lig         0.0877
      7 H7         23.0307    3.3046   12.0701 H       1  lig         0.0966
      8 H8         21.3598    4.4059   13.4779 H       1  lig         0.4431
      9 H9         20.7151    2.9947   12.8897 H       1  lig         0.4431
     10 H10        21.2670    3.0596   14.4600 H       1  lig         0.4431
     11 H11        25.0984    9.2491   14.6786 H       1  lig         0.4214
     12 C1         24.7758    5.6557   14.9446 C.ar    1  lig        -0.0999
     13 C2         23.5066    5.7689   12.9349 C.ar    1  lig        -0.0999
     14 C3         24.9651    7.0075   14.8576 C.ar    1  lig        -0.1787
     15 C4         23.7254    7.1281   12.8157 C.ar    1  lig        -0.1787
     16 C5         24.0500    5.0289   13.9786 C.ar    1  lig        -0.1394
     17 C6         24.4861    7.7408   13.8045 C.ar    1  lig         0.1292
     18 C7         22.9347    1.4416   13.0534 C.2     1  lig         0.9321
     19 C8         23.8148    3.5337   14.0795 C.3     1  lig        -0.0452
     20 C9         22.8176    2.9484   13.0790 C.3     1  lig        -0.0740
     21 N1         21.4793    3.3789   13.4818 N.4     1  lig        -0.8252
     22 O1         23.7422    1.0044   12.2364 O.co2   1  lig        -0.7573
     23 O2         22.2418    0.6765   13.7837 O.co2   1  lig        -0.7573
     24 O3         24.6883    8.9980   13.8008 O.3     1  lig        -0.4913
@<TRIPOS>BOND
     1     1    12    1
     2     2    13    1
     3     3    14    1
     4     4    15    1
     5     5    19    1
     6     6    19    1
     7     7    20    1
     8     8    21    1
     9     9    21    1
    10    10    21    1
    11    11    24    1
    12    12    14   ar
    13    12    16   ar
    14    13    15   ar
    15    13    16   ar
    16    14    17   ar
    17    15    17   ar
    18    16    19    1
    19    17    24    1
    20    18    20    1
    21    18    22    1
    22    18    23    1
    23    19    20    1
    24    20    21    1
@<TRIPOS>SUBSTRUCTURE
     1 lig         1 TEMP              0 ****  ****    0 ROOT


########## Name:		ligand
########## HA_RMSDs:		14.2002
########## HA_RMSDh:		14.1909
########## HA_RMSDm:		12.7750
########## Cluster Size:	2
##########    Grid Score:          -19.594566
##########      Grid_vdw:          -15.853420
##########       Grid_es:           -3.741147
##########    Int_energy:            1.353556

@<TRIPOS>MOLECULE
ligand
 24 24 1 0 0
SMALL
No Charge or Current Charge


@<TRIPOS>ATOM
      1 H1         25.3688    7.0351   14.5671 H       1  lig         0.1340
      2 H2         22.2565    4.7168   12.7910 H       1  lig         0.1340
      3 H3         24.6724    8.9408   13.2134 H       1  lig         0.1475
      4 H4         21.5796    6.6227   11.3845 H       1  lig         0.1475
      5 H5         24.7587    3.8305   13.9378 H       1  lig         0.0877
      6 H6         25.0802    4.8532   15.3022 H       1  lig         0.0877
      7 H7         22.2122    3.9977   14.8623 H       1  lig         0.0966
      8 H8         22.8760    5.5173   16.6615 H       1  lig         0.4431
      9 H9         22.3871    4.0798   17.3306 H       1  lig         0.4431
     10 H10        24.0125    4.4197   17.1997 H       1  lig         0.4431
     11 H11        21.8083    9.0488   11.5955 H       1  lig         0.4214
     12 C1         24.5417    6.9296   13.8696 C.ar    1  lig        -0.0999
     13 C2         22.7954    5.6579   12.8718 C.ar    1  lig        -0.0999
     14 C3         24.1456    7.9981   13.1133 C.ar    1  lig        -0.1787
     15 C4         22.4124    6.7190   12.0739 C.ar    1  lig        -0.1787
     16 C5         23.8713    5.7513   13.7471 C.ar    1  lig        -0.1394
     17 C6         23.1255    7.9049   12.2040 C.ar    1  lig         0.1292
     18 C7         23.4395    2.3976   15.4791 C.2     1  lig         0.9321
     19 C8         24.2884    4.5677   14.5991 C.3     1  lig        -0.0452
     20 C9         23.1663    3.8808   15.3783 C.3     1  lig        -0.0740
     21 N1         23.0935    4.5072   16.6978 N.4     1  lig        -0.8252
     22 O1         22.9932    1.7301   14.5486 O.co2   1  lig        -0.7573
     23 O2         24.0481    1.8659   16.4516 O.co2   1  lig        -0.7573
     24 O3         22.8028    8.9472   11.5475 O.3     1  lig        -0.4913
@<TRIPOS>BOND
     1     1    12    1
     2     2    13    1
     3     3    14    1
     4     4    15    1
     5     5    19    1
     6     6    19    1
     7     7    20    1
     8     8    21    1
     9     9    21    1
    10    10    21    1
    11    11    24    1
    12    12    14   ar
    13    12    16   ar
    14    13    15   ar
    15    13    16   ar
    16    14    17   ar
    17    15    17   ar
    18    16    19    1
    19    17    24    1
    20    18    20    1
    21    18    22    1
    22    18    23    1
    23    19    20    1
    24    20    21    1
@<TRIPOS>SUBSTRUCTURE
     1 lig         1 TEMP              0 ****  ****    0 ROOT


########## Name:		ligand
########## HA_RMSDs:		11.3980
########## HA_RMSDh:		11.3573
########## HA_RMSDm:		9.0777
########## Cluster Size:	3
##########    Grid Score:          -19.581017
##########      Grid_vdw:          -17.939548
##########       Grid_es:           -1.641469
##########    Int_energy:            2.490617

@<TRIPOS>MOLECULE
ligand
 24 24 1 0 0
SMALL
No Charge or Current Charge


@<TRIPOS>ATOM
      1 H1         17.7321   16.5507   28.6108 H       1  lig         0.1340
      2 H2         13.6741   17.7160   27.9856 H       1  lig         0.1340
      3 H3         17.5006   17.1403   30.9662 H       1  lig         0.1475
      4 H4         13.4486   18.3604   30.3527 H       1  lig         0.1475
      5 H5         14.8729   16.8571   26.2187 H       1  lig         0.0877
      6 H6         16.5038   17.4458   26.1538 H       1  lig         0.0877
      7 H7         17.3513   15.1710   26.8386 H       1  lig         0.0966
      8 H8         17.0625   15.7961   24.4907 H       1  lig         0.4431
      9 H9         16.7029   14.1854   24.6618 H       1  lig         0.4431
     10 H10        15.4700   15.2978   24.5305 H       1  lig         0.4431
     11 H11        16.3531   17.9263   32.4351 H       1  lig         0.4214
     12 C1         16.7907   16.9518   28.9779 C.ar    1  lig        -0.0999
     13 C2         14.5242   17.6002   28.6539 C.ar    1  lig        -0.0999
     14 C3         16.6565   17.2781   30.2993 C.ar    1  lig        -0.1787
     15 C4         14.3898   17.9707   29.9782 C.ar    1  lig        -0.1787
     16 C5         15.7254   17.1178   28.1471 C.ar    1  lig        -0.1394
     17 C6         15.4982   17.8096   30.8013 C.ar    1  lig         0.1292
     18 C7         15.4392   14.3098   27.0604 C.2     1  lig         0.9321
     19 C8         15.8578   16.7364   26.6849 C.3     1  lig        -0.0452
     20 C9         16.3587   15.3181   26.4103 C.3     1  lig        -0.0740
     21 N1         16.4159   15.1399   24.9599 N.4     1  lig        -0.8252
     22 O1         15.7613   13.9834   28.2007 O.co2   1  lig        -0.7573
     23 O2         14.4341   13.8080   26.4802 O.co2   1  lig        -0.7573
     24 O3         15.4429   18.0734   32.0458 O.3     1  lig        -0.4913
@<TRIPOS>BOND
     1     1    12    1
     2     2    13    1
     3     3    14    1
     4     4    15    1
     5     5    19    1
     6     6    19    1
     7     7    20    1
     8     8    21    1
     9     9    21    1
    10    10    21    1
    11    11    24    1
    12    12    14   ar
    13    12    16   ar
    14    13    15   ar
    15    13    16   ar
    16    14    17   ar
    17    15    17   ar
    18    16    19    1
    19    17    24    1
    20    18    20    1
    21    18    22    1
    22    18    23    1
    23    19    20    1
    24    20    21    1
@<TRIPOS>SUBSTRUCTURE
     1 lig         1 TEMP              0 ****  ****    0 ROOT


########## Name:		ligand
########## HA_RMSDs:		11.4234
########## HA_RMSDh:		11.3728
########## HA_RMSDm:		9.8687
########## Cluster Size:	2
##########    Grid Score:          -19.570841
##########      Grid_vdw:          -17.408564
##########       Grid_es:           -2.162277
##########    Int_energy:            2.472250

@<TRIPOS>MOLECULE
ligand
 24 24 1 0 0
SMALL
No Charge or Current Charge


@<TRIPOS>ATOM
      1 H1         13.1612    9.5430   20.9933 H       1  lig         0.1340
      2 H2          9.8451   11.3590   22.9735 H       1  lig         0.1340
      3 H3         14.6346   10.4348   22.7203 H       1  lig         0.1475
      4 H4         11.3339   12.3046   24.6936 H       1  lig         0.1475
      5 H5          9.5586   10.4226   20.8304 H       1  lig         0.0877
      6 H6         10.8953   10.0261   19.7976 H       1  lig         0.0877
      7 H7         11.0436    7.7501   20.7737 H       1  lig         0.0966
      8 H8          9.4646    8.2028   18.9603 H       1  lig         0.4431
      9 H9          8.8079    7.0581   19.9659 H       1  lig         0.4431
     10 H10         8.2889    8.6379   20.0623 H       1  lig         0.4431
     11 H11        14.8513   11.7378   24.2948 H       1  lig         0.4214
     12 C1         12.7491   10.1513   21.7944 C.ar    1  lig        -0.0999
     13 C2         10.9140   11.1662   22.9191 C.ar    1  lig        -0.0999
     14 C3         13.5723   10.6482   22.7672 C.ar    1  lig        -0.1787
     15 C4         11.7416   11.7064   23.8848 C.ar    1  lig        -0.1787
     16 C5         11.4153   10.4141   21.8629 C.ar    1  lig        -0.1394
     17 C6         13.1017   11.4396   23.7812 C.ar    1  lig         0.1292
     18 C7          9.6626    8.0686   22.3353 C.2     1  lig         0.9321
     19 C8         10.4915    9.8476   20.8015 C.3     1  lig        -0.0452
     20 C9         10.1552    8.3621   20.9367 C.3     1  lig        -0.0740
     21 N1          9.1440    8.0418   19.9300 N.4     1  lig        -0.8252
     22 O1         10.5451    7.7712   23.1373 O.co2   1  lig        -0.7573
     23 O2          8.4415    8.0906   22.6627 O.co2   1  lig        -0.7573
     24 O3         13.9263   11.8519   24.6595 O.3     1  lig        -0.4913
@<TRIPOS>BOND
     1     1    12    1
     2     2    13    1
     3     3    14    1
     4     4    15    1
     5     5    19    1
     6     6    19    1
     7     7    20    1
     8     8    21    1
     9     9    21    1
    10    10    21    1
    11    11    24    1
    12    12    14   ar
    13    12    16   ar
    14    13    15   ar
    15    13    16   ar
    16    14    17   ar
    17    15    17   ar
    18    16    19    1
    19    17    24    1
    20    18    20    1
    21    18    22    1
    22    18    23    1
    23    19    20    1
    24    20    21    1
@<TRIPOS>SUBSTRUCTURE
     1 lig         1 TEMP              0 ****  ****    0 ROOT


########## Name:		ligand
########## HA_RMSDs:		13.4562
########## HA_RMSDh:		13.3924
########## HA_RMSDm:		11.6778
########## Cluster Size:	1
##########    Grid Score:          -19.555555
##########      Grid_vdw:          -18.698729
##########       Grid_es:           -0.856827
##########    Int_energy:            1.155072

@<TRIPOS>MOLECULE
ligand
 24 24 1 0 0
SMALL
No Charge or Current Charge


@<TRIPOS>ATOM
      1 H1         10.8608   11.0687   22.3328 H       1  lig         0.1340
      2 H2          7.1252    9.7963   23.9582 H       1  lig         0.1340
      3 H3         10.6639    9.3411   20.6224 H       1  lig         0.1475
      4 H4          6.9442    8.0171   22.2639 H       1  lig         0.1475
      5 H5          9.4333   12.5340   23.8187 H       1  lig         0.0877
      6 H6          8.1407   11.8401   24.7452 H       1  lig         0.0877
      7 H7         11.0673   11.0102   25.0790 H       1  lig         0.0966
      8 H8          9.3815    9.3774   25.7708 H       1  lig         0.4431
      9 H9         10.0866   10.0230   27.1269 H       1  lig         0.4431
     10 H10         8.5783   10.5460   26.6513 H       1  lig         0.4431
     11 H11         8.0295    7.0719   20.6042 H       1  lig         0.4214
     12 C1         10.0013   10.4031   22.3328 C.ar    1  lig        -0.0999
     13 C2          7.9135    9.6818   23.2178 C.ar    1  lig        -0.0999
     14 C3          9.8857    9.4370   21.3716 C.ar    1  lig        -0.1787
     15 C4          7.8060    8.6767   22.2757 C.ar    1  lig        -0.1787
     16 C5          9.0173   10.5255   23.2653 C.ar    1  lig        -0.1394
     17 C6          8.8335    8.5604   21.3470 C.ar    1  lig         0.1292
     18 C7         10.3299   12.5866   26.2699 C.2     1  lig         0.9321
     19 C8          9.1254   11.6095   24.3209 C.3     1  lig        -0.0452
     20 C9         10.0980   11.3274   25.4665 C.3     1  lig        -0.0740
     21 N1          9.5220   10.2623   26.2866 N.4     1  lig        -0.8252
     22 O1         11.2500   13.2921   25.8623 O.co2   1  lig        -0.7573
     23 O2          9.6617   12.8886   27.3000 O.co2   1  lig        -0.7573
     24 O3          8.7862    7.6980   20.4114 O.3     1  lig        -0.4913
@<TRIPOS>BOND
     1     1    12    1
     2     2    13    1
     3     3    14    1
     4     4    15    1
     5     5    19    1
     6     6    19    1
     7     7    20    1
     8     8    21    1
     9     9    21    1
    10    10    21    1
    11    11    24    1
    12    12    14   ar
    13    12    16   ar
    14    13    15   ar
    15    13    16   ar
    16    14    17   ar
    17    15    17   ar
    18    16    19    1
    19    17    24    1
    20    18    20    1
    21    18    22    1
    22    18    23    1
    23    19    20    1
    24    20    21    1
@<TRIPOS>SUBSTRUCTURE
     1 lig         1 TEMP              0 ****  ****    0 ROOT


########## Name:		ligand
########## HA_RMSDs:		14.1423
########## HA_RMSDh:		14.0515
########## HA_RMSDm:		11.9594
########## Cluster Size:	2
##########    Grid Score:          -19.524218
##########      Grid_vdw:          -18.582464
##########       Grid_es:           -0.941754
##########    Int_energy:            1.590554

@<TRIPOS>MOLECULE
ligand
 24 24 1 0 0
SMALL
No Charge or Current Charge


@<TRIPOS>ATOM
      1 H1         22.9424    8.7237   13.4768 H       1  lig         0.1340
      2 H2         25.8389    5.6223   13.0212 H       1  lig         0.1340
      3 H3         21.2574    7.2406   12.5228 H       1  lig         0.1475
      4 H4         24.1535    4.1366   12.0108 H       1  lig         0.1475
      5 H5         26.4886    8.0178   13.3582 H       1  lig         0.0877
      6 H6         25.3062    9.2384   13.7084 H       1  lig         0.0877
      7 H7         24.8864    7.6967   15.9034 H       1  lig         0.0966
      8 H8         25.5707   10.0444   15.8184 H       1  lig         0.4431
      9 H9         26.5083    9.2558   16.9373 H       1  lig         0.4431
     10 H10        27.1319    9.5987   15.4313 H       1  lig         0.4431
     11 H11        20.7893    5.2213   12.1062 H       1  lig         0.4214
     12 C1         23.2222    7.7240   13.1541 C.ar    1  lig        -0.0999
     13 C2         24.8188    5.9783   12.8977 C.ar    1  lig        -0.0999
     14 C3         22.2782    6.8884   12.6238 C.ar    1  lig        -0.1787
     15 C4         23.8823    5.1398   12.3238 C.ar    1  lig        -0.1787
     16 C5         24.4998    7.2739   13.2875 C.ar    1  lig        -0.1394
     17 C6         22.5896    5.6302   12.1809 C.ar    1  lig         0.1292
     18 C7         26.8201    6.9067   15.6145 C.2     1  lig         0.9321
     19 C8         25.5483    8.1854   13.8964 C.3     1  lig        -0.0452
     20 C9         25.8014    8.0012   15.3931 C.3     1  lig        -0.0740
     21 N1         26.2612    9.2826   15.9272 N.4     1  lig        -0.8252
     22 O1         26.3458    5.8289   15.9665 O.co2   1  lig        -0.7573
     23 O2         28.0661    7.0780   15.4842 O.co2   1  lig        -0.7573
     24 O3         21.6537    4.9041   11.7138 O.3     1  lig        -0.4913
@<TRIPOS>BOND
     1     1    12    1
     2     2    13    1
     3     3    14    1
     4     4    15    1
     5     5    19    1
     6     6    19    1
     7     7    20    1
     8     8    21    1
     9     9    21    1
    10    10    21    1
    11    11    24    1
    12    12    14   ar
    13    12    16   ar
    14    13    15   ar
    15    13    16   ar
    16    14    17   ar
    17    15    17   ar
    18    16    19    1
    19    17    24    1
    20    18    20    1
    21    18    22    1
    22    18    23    1
    23    19    20    1
    24    20    21    1
@<TRIPOS>SUBSTRUCTURE
     1 lig         1 TEMP              0 ****  ****    0 ROOT


########## Name:		ligand
########## HA_RMSDs:		12.2897
########## HA_RMSDh:		12.2190
########## HA_RMSDm:		10.0452
########## Cluster Size:	2
##########    Grid Score:          -19.506798
##########      Grid_vdw:          -16.309258
##########       Grid_es:           -3.197539
##########    Int_energy:            3.545230

@<TRIPOS>MOLECULE
ligand
 24 24 1 0 0
SMALL
No Charge or Current Charge


@<TRIPOS>ATOM
      1 H1         12.1614   10.7947   21.5160 H       1  lig         0.1340
      2 H2          8.5678   10.0100   23.6807 H       1  lig         0.1340
      3 H3         11.4013    9.2685   19.7720 H       1  lig         0.1475
      4 H4          7.8168    8.4292   21.9470 H       1  lig         0.1475
      5 H5         11.2709   12.3386   23.3007 H       1  lig         0.0877
      6 H6         10.0307   11.7996   24.3879 H       1  lig         0.0877
      7 H7         11.7357   11.2105   25.7775 H       1  lig         0.0966
      8 H8         13.2711   12.4965   24.3720 H       1  lig         0.4431
      9 H9         14.0466   11.1253   24.8930 H       1  lig         0.4431
     10 H10        13.4499   11.1973   23.3395 H       1  lig         0.4431
     11 H11         9.1605    8.5330   18.9707 H       1  lig         0.4214
     12 C1         11.2111   10.2784   21.6257 C.ar    1  lig        -0.0999
     13 C2          9.1971    9.8318   22.8119 C.ar    1  lig        -0.0999
     14 C3         10.7799    9.4262   20.6467 C.ar    1  lig        -0.1787
     15 C4          8.7702    8.9383   21.8482 C.ar    1  lig        -0.1787
     16 C5         10.4232   10.4801   22.7172 C.ar    1  lig        -0.1394
     17 C6          9.6020    8.7353   20.7533 C.ar    1  lig         0.1292
     18 C7         11.9608    9.3971   24.7249 C.2     1  lig         0.9321
     19 C8         10.8823   11.4416   23.7968 C.3     1  lig        -0.0452
     20 C9         11.9511   10.9084   24.7516 C.3     1  lig        -0.0740
     21 N1         13.2376   11.4638   24.3335 N.4     1  lig        -0.8252
     22 O1         12.8571    8.9025   24.0448 O.co2   1  lig        -0.7573
     23 O2         11.1038    8.6843   25.3218 O.co2   1  lig        -0.7573
     24 O3          9.2591    7.9720   19.7936 O.3     1  lig        -0.4913
@<TRIPOS>BOND
     1     1    12    1
     2     2    13    1
     3     3    14    1
     4     4    15    1
     5     5    19    1
     6     6    19    1
     7     7    20    1
     8     8    21    1
     9     9    21    1
    10    10    21    1
    11    11    24    1
    12    12    14   ar
    13    12    16   ar
    14    13    15   ar
    15    13    16   ar
    16    14    17   ar
    17    15    17   ar
    18    16    19    1
    19    17    24    1
    20    18    20    1
    21    18    22    1
    22    18    23    1
    23    19    20    1
    24    20    21    1
@<TRIPOS>SUBSTRUCTURE
     1 lig         1 TEMP              0 ****  ****    0 ROOT


########## Name:		ligand
########## HA_RMSDs:		14.7282
########## HA_RMSDh:		14.7282
########## HA_RMSDm:		13.0405
########## Cluster Size:	1
##########    Grid Score:          -19.471533
##########      Grid_vdw:          -14.935870
##########       Grid_es:           -4.535662
##########    Int_energy:            3.359458

@<TRIPOS>MOLECULE
ligand
 24 24 1 0 0
SMALL
No Charge or Current Charge


@<TRIPOS>ATOM
      1 H1         25.7993    5.4510   13.0493 H       1  lig         0.1340
      2 H2         21.6815    4.7018   12.2139 H       1  lig         0.1340
      3 H3         25.3260    7.8436   13.0525 H       1  lig         0.1475
      4 H4         21.2062    7.1186   12.1663 H       1  lig         0.1475
      5 H5         23.4170    2.9695   11.8692 H       1  lig         0.0877
      6 H6         25.0816    3.2336   12.2814 H       1  lig         0.0877
      7 H7         23.9440    1.6522   13.8480 H       1  lig         0.0966
      8 H8         21.7496    2.7317   13.7691 H       1  lig         0.4431
      9 H9         22.2507    2.6570   15.3490 H       1  lig         0.4431
     10 H10        22.3674    4.0926   14.5123 H       1  lig         0.4431
     11 H11        22.1114    9.0718   12.5543 H       1  lig         0.4214
     12 C1         24.7906    5.8030   12.8483 C.ar    1  lig        -0.0999
     13 C2         22.4892    5.4084   12.3900 C.ar    1  lig        -0.0999
     14 C3         24.5213    7.1439   12.8549 C.ar    1  lig        -0.1787
     15 C4         22.2138    6.7620   12.3546 C.ar    1  lig        -0.1787
     16 C5         23.7753    4.9285   12.6090 C.ar    1  lig        -0.1394
     17 C6         23.2717    7.6343   12.5826 C.ar    1  lig         0.1292
     18 C7         24.8855    3.1776   14.9587 C.2     1  lig         0.9321
     19 C8         24.0599    3.4386   12.6232 C.3     1  lig        -0.0452
     20 C9         23.8405    2.7323   13.9615 C.3     1  lig        -0.0740
     21 N1         22.4884    3.0532   14.4170 N.4     1  lig        -0.8252
     22 O1         26.0349    2.8431   14.6800 O.co2   1  lig        -0.7573
     23 O2         24.6126    3.8151   16.0160 O.co2   1  lig        -0.7573
     24 O3         23.0940    8.8945   12.6231 O.3     1  lig        -0.4913
@<TRIPOS>BOND
     1     1    12    1
     2     2    13    1
     3     3    14    1
     4     4    15    1
     5     5    19    1
     6     6    19    1
     7     7    20    1
     8     8    21    1
     9     9    21    1
    10    10    21    1
    11    11    24    1
    12    12    14   ar
    13    12    16   ar
    14    13    15   ar
    15    13    16   ar
    16    14    17   ar
    17    15    17   ar
    18    16    19    1
    19    17    24    1
    20    18    20    1
    21    18    22    1
    22    18    23    1
    23    19    20    1
    24    20    21    1
@<TRIPOS>SUBSTRUCTURE
     1 lig         1 TEMP              0 ****  ****    0 ROOT


########## Name:		ligand
########## HA_RMSDs:		10.4627
########## HA_RMSDh:		10.3390
########## HA_RMSDm:		8.1303
########## Cluster Size:	1
##########    Grid Score:          -19.420101
##########      Grid_vdw:          -15.903866
##########       Grid_es:           -3.516235
##########    Int_energy:            2.840416

@<TRIPOS>MOLECULE
ligand
 24 24 1 0 0
SMALL
No Charge or Current Charge


@<TRIPOS>ATOM
      1 H1         18.0774   13.5779   25.0267 H       1  lig         0.1340
      2 H2         14.2623   13.5113   26.9387 H       1  lig         0.1340
      3 H3         17.1298   12.3084   23.1722 H       1  lig         0.1475
      4 H4         13.3113   12.1861   25.0925 H       1  lig         0.1475
      5 H5         16.1197   14.3316   28.1009 H       1  lig         0.0877
      6 H6         17.7440   13.9547   27.6209 H       1  lig         0.0877
      7 H7         17.7210   16.0030   26.0984 H       1  lig         0.0966
      8 H8         18.6294   16.0258   28.3702 H       1  lig         0.4431
      9 H9         17.8996   17.4859   28.0731 H       1  lig         0.4431
     10 H10        17.1153   16.3430   28.9967 H       1  lig         0.4431
     11 H11        15.4972   11.4681   22.3267 H       1  lig         0.4214
     12 C1         17.0341   13.2740   25.0565 C.ar    1  lig        -0.0999
     13 C2         14.8964   13.2309   26.1009 C.ar    1  lig        -0.0999
     14 C3         16.4988   12.5668   24.0154 C.ar    1  lig        -0.1787
     15 C4         14.3554   12.4819   25.0734 C.ar    1  lig        -0.1787
     16 C5         16.2355   13.6040   26.1082 C.ar    1  lig        -0.1394
     17 C6         15.1968   12.1414   24.0208 C.ar    1  lig         0.1292
     18 C7         15.7711   16.5873   26.6491 C.2     1  lig         0.9321
     19 C8         16.8145   14.4086   27.2564 C.3     1  lig        -0.0452
     20 C9         17.0725   15.8879   26.9682 C.3     1  lig        -0.0740
     21 N1         17.7202   16.4639   28.1461 N.4     1  lig        -0.8252
     22 O1         14.8443   16.3166   27.4096 O.co2   1  lig        -0.7573
     23 O2         15.6219   17.3658   25.6640 O.co2   1  lig        -0.7573
     24 O3         14.7651   11.5013   23.0083 O.3     1  lig        -0.4913
@<TRIPOS>BOND
     1     1    12    1
     2     2    13    1
     3     3    14    1
     4     4    15    1
     5     5    19    1
     6     6    19    1
     7     7    20    1
     8     8    21    1
     9     9    21    1
    10    10    21    1
    11    11    24    1
    12    12    14   ar
    13    12    16   ar
    14    13    15   ar
    15    13    16   ar
    16    14    17   ar
    17    15    17   ar
    18    16    19    1
    19    17    24    1
    20    18    20    1
    21    18    22    1
    22    18    23    1
    23    19    20    1
    24    20    21    1
@<TRIPOS>SUBSTRUCTURE
     1 lig         1 TEMP              0 ****  ****    0 ROOT


########## Name:		ligand
########## HA_RMSDs:		11.3830
########## HA_RMSDh:		11.3141
########## HA_RMSDm:		9.0029
########## Cluster Size:	2
##########    Grid Score:          -19.412495
##########      Grid_vdw:          -18.134556
##########       Grid_es:           -1.277939
##########    Int_energy:            3.080541

@<TRIPOS>MOLECULE
ligand
 24 24 1 0 0
SMALL
No Charge or Current Charge


@<TRIPOS>ATOM
      1 H1         13.7923   17.7727   27.9086 H       1  lig         0.1340
      2 H2         17.8241   16.5809   28.6437 H       1  lig         0.1340
      3 H3         13.5579   18.3109   30.2760 H       1  lig         0.1475
      4 H4         17.5787   17.0753   31.0446 H       1  lig         0.1475
      5 H5         14.9940   16.9369   26.1819 H       1  lig         0.0877
      6 H6         16.6222   17.5365   26.1674 H       1  lig         0.0877
      7 H7         17.4943   15.2584   26.7254 H       1  lig         0.0966
      8 H8         17.1180   15.9337   24.4039 H       1  lig         0.4431
      9 H9         16.7895   14.3138   24.5480 H       1  lig         0.4431
     10 H10        15.5358   15.4085   24.4839 H       1  lig         0.4431
     11 H11        16.1683   18.4542   32.3634 H       1  lig         0.4214
     12 C1         14.6270   17.6094   28.5856 C.ar    1  lig        -0.0999
     13 C2         16.8745   16.9572   29.0170 C.ar    1  lig        -0.0999
     14 C3         14.5001   17.9154   29.9126 C.ar    1  lig        -0.1787
     15 C4         16.7447   17.2252   30.3663 C.ar    1  lig        -0.1787
     16 C5         15.8146   17.1221   28.1328 C.ar    1  lig        -0.1394
     17 C6         15.5160   17.7031   30.8065 C.ar    1  lig         0.1292
     18 C7         15.6043   14.3610   26.9890 C.2     1  lig         0.9321
     19 C8         15.9721   16.8022   26.6584 C.3     1  lig        -0.0452
     20 C9         16.4859   15.3992   26.3335 C.3     1  lig        -0.0740
     21 N1         16.4977   15.2561   24.8782 N.4     1  lig        -0.8252
     22 O1         14.4023   14.6156   26.9568 O.co2   1  lig        -0.7573
     23 O2         16.0531   13.3248   27.5579 O.co2   1  lig        -0.7573
     24 O3         15.3290   18.0279   32.0234 O.3     1  lig        -0.4913
@<TRIPOS>BOND
     1     1    12    1
     2     2    13    1
     3     3    14    1
     4     4    15    1
     5     5    19    1
     6     6    19    1
     7     7    20    1
     8     8    21    1
     9     9    21    1
    10    10    21    1
    11    11    24    1
    12    12    14   ar
    13    12    16   ar
    14    13    15   ar
    15    13    16   ar
    16    14    17   ar
    17    15    17   ar
    18    16    19    1
    19    17    24    1
    20    18    20    1
    21    18    22    1
    22    18    23    1
    23    19    20    1
    24    20    21    1
@<TRIPOS>SUBSTRUCTURE
     1 lig         1 TEMP              0 ****  ****    0 ROOT


########## Name:		ligand
########## HA_RMSDs:		9.8468
########## HA_RMSDh:		9.8225
########## HA_RMSDm:		7.9406
########## Cluster Size:	1
##########    Grid Score:          -19.384502
##########      Grid_vdw:          -15.185499
##########       Grid_es:           -4.199004
##########    Int_energy:            1.678813

@<TRIPOS>MOLECULE
ligand
 24 24 1 0 0
SMALL
No Charge or Current Charge


@<TRIPOS>ATOM
      1 H1         16.6649   16.4105   25.6463 H       1  lig         0.1340
      2 H2         13.9100   13.5467   27.2035 H       1  lig         0.1340
      3 H3         15.9180   17.9970   27.3415 H       1  lig         0.1475
      4 H4         13.1156   15.1609   28.8865 H       1  lig         0.1475
      5 H5         14.9546   13.2178   25.0435 H       1  lig         0.0877
      6 H6         16.0011   14.3920   24.3110 H       1  lig         0.0877
      7 H7         17.0523   12.9160   26.7347 H       1  lig         0.0966
      8 H8         18.3176   14.6903   25.6221 H       1  lig         0.4431
      9 H9         19.0904   13.2443   25.3677 H       1  lig         0.4431
     10 H10        18.1639   13.9106   24.1544 H       1  lig         0.4431
     11 H11        13.3127   17.2624   29.5184 H       1  lig         0.4214
     12 C1         15.8826   16.1264   26.3456 C.ar    1  lig        -0.0999
     13 C2         14.3449   14.5429   27.2348 C.ar    1  lig        -0.0999
     14 C3         15.4657   17.0122   27.3007 C.ar    1  lig        -0.1787
     15 C4         13.8880   15.4433   28.1781 C.ar    1  lig        -0.1787
     16 C5         15.3184   14.8883   26.3046 C.ar    1  lig        -0.1394
     17 C6         14.4664   16.7071   28.1864 C.ar    1  lig         0.1292
     18 C7         16.9021   11.6733   25.0376 C.2     1  lig         0.9321
     19 C8         15.7911   13.8911   25.2638 C.3     1  lig        -0.0452
     20 C9         17.0073   13.0499   25.6529 C.3     1  lig        -0.0740
     21 N1         18.2021   13.7568   25.1931 N.4     1  lig        -0.8252
     22 O1         16.6442   11.6677   23.8359 O.co2   1  lig        -0.7573
     23 O2         17.0336   10.6031   25.6981 O.co2   1  lig        -0.7573
     24 O3         14.1435   17.5776   29.0578 O.3     1  lig        -0.4913
@<TRIPOS>BOND
     1     1    12    1
     2     2    13    1
     3     3    14    1
     4     4    15    1
     5     5    19    1
     6     6    19    1
     7     7    20    1
     8     8    21    1
     9     9    21    1
    10    10    21    1
    11    11    24    1
    12    12    14   ar
    13    12    16   ar
    14    13    15   ar
    15    13    16   ar
    16    14    17   ar
    17    15    17   ar
    18    16    19    1
    19    17    24    1
    20    18    20    1
    21    18    22    1
    22    18    23    1
    23    19    20    1
    24    20    21    1
@<TRIPOS>SUBSTRUCTURE
     1 lig         1 TEMP              0 ****  ****    0 ROOT


########## Name:		ligand
########## HA_RMSDs:		11.9395
########## HA_RMSDh:		11.8272
########## HA_RMSDm:		10.0159
########## Cluster Size:	1
##########    Grid Score:          -19.382957
##########      Grid_vdw:          -19.151373
##########       Grid_es:           -0.231584
##########    Int_energy:            1.646193

@<TRIPOS>MOLECULE
ligand
 24 24 1 0 0
SMALL
No Charge or Current Charge


@<TRIPOS>ATOM
      1 H1          9.4905   10.0948   22.2441 H       1  lig         0.1340
      2 H2         12.8169   12.2550   23.8202 H       1  lig         0.1340
      3 H3         11.0363    8.7538   20.9172 H       1  lig         0.1475
      4 H4         14.3799   10.9377   22.4451 H       1  lig         0.1475
      5 H5         10.4579   13.1349   23.9280 H       1  lig         0.0877
      6 H6          9.1087   12.1441   23.4712 H       1  lig         0.0877
      7 H7         10.0846   10.5743   25.4811 H       1  lig         0.0966
      8 H8          7.8444   11.5327   25.2580 H       1  lig         0.4431
      9 H9          8.3778   11.7790   26.8097 H       1  lig         0.4431
     10 H10         8.4164   13.0330   25.7140 H       1  lig         0.4431
     11 H11        14.4699    9.3326   20.9655 H       1  lig         0.4214
     12 C1         10.5580   10.2939   22.2926 C.ar    1  lig        -0.0999
     13 C2         12.4279   11.4801   23.1638 C.ar    1  lig        -0.0999
     14 C3         11.4276    9.5398   21.5537 C.ar    1  lig        -0.1787
     15 C4         13.3120   10.7512   22.3916 C.ar    1  lig        -0.1787
     16 C5         11.0549   11.2730   23.0971 C.ar    1  lig        -0.1394
     17 C6         12.7777    9.7707   21.5640 C.ar    1  lig         0.1292
     18 C7         10.9797   12.3184   26.2580 C.2     1  lig         0.9321
     19 C8         10.1000   12.0987   23.9381 C.3     1  lig        -0.0452
     20 C9          9.9365   11.6514   25.3911 C.3     1  lig        -0.0740
     21 N1          8.5806   11.9999   25.8136 N.4     1  lig        -0.8252
     22 O1         11.9627   11.6226   26.5035 O.co2   1  lig        -0.7573
     23 O2         10.8524   13.4853   26.7281 O.co2   1  lig        -0.7573
     24 O3         13.5259    9.0166   20.8620 O.3     1  lig        -0.4913
@<TRIPOS>BOND
     1     1    12    1
     2     2    13    1
     3     3    14    1
     4     4    15    1
     5     5    19    1
     6     6    19    1
     7     7    20    1
     8     8    21    1
     9     9    21    1
    10    10    21    1
    11    11    24    1
    12    12    14   ar
    13    12    16   ar
    14    13    15   ar
    15    13    16   ar
    16    14    17   ar
    17    15    17   ar
    18    16    19    1
    19    17    24    1
    20    18    20    1
    21    18    22    1
    22    18    23    1
    23    19    20    1
    24    20    21    1
@<TRIPOS>SUBSTRUCTURE
     1 lig         1 TEMP              0 ****  ****    0 ROOT


########## Name:		ligand
########## HA_RMSDs:		13.7588
########## HA_RMSDh:		13.7242
########## HA_RMSDm:		11.9699
########## Cluster Size:	1
##########    Grid Score:          -19.375698
##########      Grid_vdw:          -15.712158
##########       Grid_es:           -3.663541
##########    Int_energy:            3.771105

@<TRIPOS>MOLECULE
ligand
 24 24 1 0 0
SMALL
No Charge or Current Charge


@<TRIPOS>ATOM
      1 H1          9.7832    7.3350   20.1516 H       1  lig         0.1340
      2 H2          7.4379    9.3494   23.0940 H       1  lig         0.1340
      3 H3         11.4944    9.0568   20.3891 H       1  lig         0.1475
      4 H4          9.1396   11.1185   23.3025 H       1  lig         0.1475
      5 H5          6.4586    7.6409   21.6256 H       1  lig         0.0877
      6 H6          7.3879    6.7908   20.4322 H       1  lig         0.0877
      7 H7          6.9535    5.1476   22.0808 H       1  lig         0.0966
      8 H8          6.1497    6.7311   23.7640 H       1  lig         0.4431
      9 H9          7.2338    5.6980   24.4784 H       1  lig         0.4431
     10 H10         7.7109    7.2392   24.0642 H       1  lig         0.4431
     11 H11        11.0341   11.9209   21.5519 H       1  lig         0.4214
     12 C1          9.6270    8.1613   20.8404 C.ar    1  lig        -0.0999
     13 C2          8.3396    9.2970   22.4883 C.ar    1  lig        -0.0999
     14 C3         10.5873    9.1253   20.9796 C.ar    1  lig        -0.1787
     15 C4          9.2850   10.2976   22.6076 C.ar    1  lig        -0.1787
     16 C5          8.4945    8.2468   21.5907 C.ar    1  lig        -0.1394
     17 C6         10.4233   10.1973   21.8162 C.ar    1  lig         0.1292
     18 C7          9.0036    5.4961   22.4307 C.2     1  lig         0.9321
     19 C8          7.4345    7.1696   21.4604 C.3     1  lig        -0.0452
     20 C9          7.5724    5.9821   22.4137 C.3     1  lig        -0.0740
     21 N1          7.1361    6.4224   23.7382 N.4     1  lig        -0.8252
     22 O1          9.7077    6.0070   23.2990 O.co2   1  lig        -0.7573
     23 O2          9.4641    4.6566   21.6050 O.co2   1  lig        -0.7573
     24 O3         11.3684   11.0460   21.9048 O.3     1  lig        -0.4913
@<TRIPOS>BOND
     1     1    12    1
     2     2    13    1
     3     3    14    1
     4     4    15    1
     5     5    19    1
     6     6    19    1
     7     7    20    1
     8     8    21    1
     9     9    21    1
    10    10    21    1
    11    11    24    1
    12    12    14   ar
    13    12    16   ar
    14    13    15   ar
    15    13    16   ar
    16    14    17   ar
    17    15    17   ar
    18    16    19    1
    19    17    24    1
    20    18    20    1
    21    18    22    1
    22    18    23    1
    23    19    20    1
    24    20    21    1
@<TRIPOS>SUBSTRUCTURE
     1 lig         1 TEMP              0 ****  ****    0 ROOT


########## Name:		ligand
########## HA_RMSDs:		11.8477
########## HA_RMSDh:		11.7722
########## HA_RMSDm:		9.6026
########## Cluster Size:	3
##########    Grid Score:          -19.375010
##########      Grid_vdw:          -19.260033
##########       Grid_es:           -0.114976
##########    Int_energy:            1.088674

@<TRIPOS>MOLECULE
ligand
 24 24 1 0 0
SMALL
No Charge or Current Charge


@<TRIPOS>ATOM
      1 H1         12.0723    9.6022   20.3445 H       1  lig         0.1340
      2 H2          9.1201   10.4634   23.3040 H       1  lig         0.1340
      3 H3         10.5056    8.0650   19.2810 H       1  lig         0.1475
      4 H4          7.5506    8.8749   22.2636 H       1  lig         0.1475
      5 H5         11.9758   11.8085   21.7987 H       1  lig         0.0877
      6 H6         11.1561   11.6810   23.3227 H       1  lig         0.0877
      7 H7         13.3658    9.7356   22.4975 H       1  lig         0.0966
      8 H8         11.8286    9.0296   24.2653 H       1  lig         0.4431
      9 H9         13.3038    9.3679   24.9452 H       1  lig         0.4431
     10 H10        12.0620   10.4704   25.0748 H       1  lig         0.4431
     11 H11         8.6345    7.2920   19.2236 H       1  lig         0.4214
     12 C1         11.0877    9.4473   20.7785 C.ar    1  lig        -0.0999
     13 C2          9.4242    9.9180   22.4137 C.ar    1  lig        -0.0999
     14 C3         10.2052    8.5901   20.1811 C.ar    1  lig        -0.1787
     15 C4          8.5393    9.0243   21.8414 C.ar    1  lig        -0.1787
     16 C5         10.7025   10.1111   21.9028 C.ar    1  lig        -0.1394
     17 C6          8.9639    8.3449   20.7057 C.ar    1  lig         0.1292
     18 C7         13.9532   11.5294   23.4379 C.2     1  lig         0.9321
     19 C8         11.6661   11.0817   22.5587 C.3     1  lig        -0.0452
     20 C9         12.9173   10.4594   23.1795 C.3     1  lig        -0.0740
     21 N1         12.5140    9.7890   24.4151 N.4     1  lig        -0.8252
     22 O1         14.7582   11.6943   22.5240 O.co2   1  lig        -0.7573
     23 O2         14.0205   12.1882   24.5151 O.co2   1  lig        -0.7573
     24 O3          8.1913    7.5460   20.0842 O.3     1  lig        -0.4913
@<TRIPOS>BOND
     1     1    12    1
     2     2    13    1
     3     3    14    1
     4     4    15    1
     5     5    19    1
     6     6    19    1
     7     7    20    1
     8     8    21    1
     9     9    21    1
    10    10    21    1
    11    11    24    1
    12    12    14   ar
    13    12    16   ar
    14    13    15   ar
    15    13    16   ar
    16    14    17   ar
    17    15    17   ar
    18    16    19    1
    19    17    24    1
    20    18    20    1
    21    18    22    1
    22    18    23    1
    23    19    20    1
    24    20    21    1
@<TRIPOS>SUBSTRUCTURE
     1 lig         1 TEMP              0 ****  ****    0 ROOT


########## Name:		ligand
########## HA_RMSDs:		12.0051
########## HA_RMSDh:		11.9205
########## HA_RMSDm:		10.2871
########## Cluster Size:	1
##########    Grid Score:          -19.366455
##########      Grid_vdw:          -17.482458
##########       Grid_es:           -1.883997
##########    Int_energy:            5.346539

@<TRIPOS>MOLECULE
ligand
 24 24 1 0 0
SMALL
No Charge or Current Charge


@<TRIPOS>ATOM
      1 H1          7.7421   11.1669   24.2493 H       1  lig         0.1340
      2 H2         11.9905   10.9717   24.6080 H       1  lig         0.1340
      3 H3          7.6478   12.2956   26.4094 H       1  lig         0.1475
      4 H4         11.8985   12.0664   26.8130 H       1  lig         0.1475
      5 H5          9.4486    9.3152   23.0520 H       1  lig         0.0877
      6 H6          9.3310   10.8294   22.2130 H       1  lig         0.0877
      7 H7         12.0112    9.6916   23.1458 H       1  lig         0.0966
      8 H8         11.8960   12.0884   22.6675 H       1  lig         0.4431
      9 H9         12.7612   11.3452   21.4625 H       1  lig         0.4431
     10 H10        11.1767   11.7825   21.1927 H       1  lig         0.4431
     11 H11         9.1271   13.6940   27.6930 H       1  lig         0.4214
     12 C1          8.6589   11.3522   24.8032 C.ar    1  lig        -0.0999
     13 C2         11.0268   11.2609   25.0207 C.ar    1  lig        -0.0999
     14 C3          8.6094   11.9898   26.0122 C.ar    1  lig        -0.1787
     15 C4         10.9851   11.8683   26.2611 C.ar    1  lig        -0.1787
     16 C5          9.8692   10.9788   24.3046 C.ar    1  lig        -0.1394
     17 C6          9.7356   12.2221   26.7565 C.ar    1  lig         0.1292
     18 C7         11.2955    9.0698   21.2621 C.2     1  lig         0.9321
     19 C8          9.9359   10.2923   22.9536 C.3     1  lig        -0.0452
     20 C9         11.3386   10.0843   22.3818 C.3     1  lig        -0.0740
     21 N1         11.8256   11.3821   21.9157 N.4     1  lig        -0.8252
     22 O1         10.7007    8.0297   21.5360 O.co2   1  lig        -0.7573
     23 O2         11.8495    9.2474   20.1394 O.co2   1  lig        -0.7573
     24 O3          9.6122   12.8357   27.8654 O.3     1  lig        -0.4913
@<TRIPOS>BOND
     1     1    12    1
     2     2    13    1
     3     3    14    1
     4     4    15    1
     5     5    19    1
     6     6    19    1
     7     7    20    1
     8     8    21    1
     9     9    21    1
    10    10    21    1
    11    11    24    1
    12    12    14   ar
    13    12    16   ar
    14    13    15   ar
    15    13    16   ar
    16    14    17   ar
    17    15    17   ar
    18    16    19    1
    19    17    24    1
    20    18    20    1
    21    18    22    1
    22    18    23    1
    23    19    20    1
    24    20    21    1
@<TRIPOS>SUBSTRUCTURE
     1 lig         1 TEMP              0 ****  ****    0 ROOT


########## Name:		ligand
########## HA_RMSDs:		10.9403
########## HA_RMSDh:		10.8666
########## HA_RMSDm:		8.2511
########## Cluster Size:	1
##########    Grid Score:          -19.344046
##########      Grid_vdw:          -14.996218
##########       Grid_es:           -4.347828
##########    Int_energy:            1.522501

@<TRIPOS>MOLECULE
ligand
 24 24 1 0 0
SMALL
No Charge or Current Charge


@<TRIPOS>ATOM
      1 H1         18.3376   14.7052   26.8080 H       1  lig         0.1340
      2 H2         14.1830   13.7286   26.7763 H       1  lig         0.1340
      3 H3         18.6064   13.4723   24.7207 H       1  lig         0.1475
      4 H4         14.4570   12.4399   24.6947 H       1  lig         0.1475
      5 H5         15.0220   14.9655   28.5247 H       1  lig         0.0877
      6 H6         16.6354   14.5895   29.0407 H       1  lig         0.0877
      7 H7         17.2756   16.6982   27.4772 H       1  lig         0.0966
      8 H8         17.6281   16.4554   29.8863 H       1  lig         0.4431
      9 H9         17.0359   17.9757   29.5845 H       1  lig         0.4431
     10 H10        16.0206   16.7964   30.1787 H       1  lig         0.4431
     11 H11        17.6282   12.6280   23.0913 H       1  lig         0.4214
     12 C1         17.4812   14.2086   26.3591 C.ar    1  lig        -0.0999
     13 C2         15.1664   13.6584   26.3173 C.ar    1  lig        -0.0999
     14 C3         17.6279   13.5211   25.1859 C.ar    1  lig        -0.1787
     15 C4         15.3111   12.9277   25.1535 C.ar    1  lig        -0.1787
     16 C5         16.2491   14.2748   26.9340 C.ar    1  lig        -0.1394
     17 C6         16.5830   12.8594   24.5972 C.ar    1  lig         0.1292
     18 C7         15.2710   17.3362   27.6244 C.2     1  lig         0.9321
     19 C8         16.0721   15.0548   28.2228 C.3     1  lig        -0.0452
     20 C9         16.4384   16.5380   28.1582 C.3     1  lig        -0.0740
     21 N1         16.8112   16.9629   29.5069 N.4     1  lig        -0.8252
     22 O1         15.1826   17.3572   26.3987 O.co2   1  lig        -0.7573
     23 O2         14.4605   17.9646   28.3640 O.co2   1  lig        -0.7573
     24 O3         16.7930   12.2543   23.4967 O.3     1  lig        -0.4913
@<TRIPOS>BOND
     1     1    12    1
     2     2    13    1
     3     3    14    1
     4     4    15    1
     5     5    19    1
     6     6    19    1
     7     7    20    1
     8     8    21    1
     9     9    21    1
    10    10    21    1
    11    11    24    1
    12    12    14   ar
    13    12    16   ar
    14    13    15   ar
    15    13    16   ar
    16    14    17   ar
    17    15    17   ar
    18    16    19    1
    19    17    24    1
    20    18    20    1
    21    18    22    1
    22    18    23    1
    23    19    20    1
    24    20    21    1
@<TRIPOS>SUBSTRUCTURE
     1 lig         1 TEMP              0 ****  ****    0 ROOT


########## Name:		ligand
########## HA_RMSDs:		11.6572
########## HA_RMSDh:		11.5957
########## HA_RMSDm:		9.7369
########## Cluster Size:	2
##########    Grid Score:          -19.341618
##########      Grid_vdw:          -18.640644
##########       Grid_es:           -0.700974
##########    Int_energy:            2.066143

@<TRIPOS>MOLECULE
ligand
 24 24 1 0 0
SMALL
No Charge or Current Charge


@<TRIPOS>ATOM
      1 H1          9.8288   10.6500   23.3900 H       1  lig         0.1340
      2 H2         12.3313    9.4679   20.1410 H       1  lig         0.1340
      3 H3          8.0342    9.2875   22.4561 H       1  lig         0.1475
      4 H4         10.5073    8.1297   19.1656 H       1  lig         0.1475
      5 H5         12.9734   11.2819   21.5741 H       1  lig         0.0877
      6 H6         11.9284   11.9439   22.7908 H       1  lig         0.0877
      7 H7         12.5024    9.9409   24.2840 H       1  lig         0.0966
      8 H8         13.6011   12.1208   24.4495 H       1  lig         0.4431
      9 H9         14.7243   10.9342   24.7381 H       1  lig         0.4431
     10 H10        14.6843   11.6907   23.2547 H       1  lig         0.4431
     11 H11         8.4454    7.4969   19.4972 H       1  lig         0.4214
     12 C1          9.9885   10.1082   22.4612 C.ar    1  lig        -0.0999
     13 C2         11.3684    9.4302   20.6449 C.ar    1  lig        -0.0999
     14 C3          8.9857    9.3391   21.9381 C.ar    1  lig        -0.1787
     15 C4         10.3496    8.6822   20.0864 C.ar    1  lig        -0.1787
     16 C5         11.1838   10.1621   21.8122 C.ar    1  lig        -0.1394
     17 C6          9.1329    8.6593   20.7581 C.ar    1  lig         0.1292
     18 C7         13.8726    9.1223   22.9059 C.2     1  lig         0.9321
     19 C8         12.3094   10.9937   22.3974 C.3     1  lig        -0.0452
     20 C9         13.1433   10.3135   23.4837 C.3     1  lig        -0.0740
     21 N1         14.0727   11.3079   24.0185 N.4     1  lig        -0.8252
     22 O1         13.2670    8.0568   22.9982 O.co2   1  lig        -0.7573
     23 O2         15.0269    9.1929   22.3946 O.co2   1  lig        -0.7573
     24 O3          8.1600    7.9509   20.3423 O.3     1  lig        -0.4913
@<TRIPOS>BOND
     1     1    12    1
     2     2    13    1
     3     3    14    1
     4     4    15    1
     5     5    19    1
     6     6    19    1
     7     7    20    1
     8     8    21    1
     9     9    21    1
    10    10    21    1
    11    11    24    1
    12    12    14   ar
    13    12    16   ar
    14    13    15   ar
    15    13    16   ar
    16    14    17   ar
    17    15    17   ar
    18    16    19    1
    19    17    24    1
    20    18    20    1
    21    18    22    1
    22    18    23    1
    23    19    20    1
    24    20    21    1
@<TRIPOS>SUBSTRUCTURE
     1 lig         1 TEMP              0 ****  ****    0 ROOT


########## Name:		ligand
########## HA_RMSDs:		12.2803
########## HA_RMSDh:		12.2024
########## HA_RMSDm:		9.8118
########## Cluster Size:	1
##########    Grid Score:          -19.322048
##########      Grid_vdw:          -17.715288
##########       Grid_es:           -1.606761
##########    Int_energy:            3.669491

@<TRIPOS>MOLECULE
ligand
 24 24 1 0 0
SMALL
No Charge or Current Charge


@<TRIPOS>ATOM
      1 H1         11.8898    9.7968   20.2378 H       1  lig         0.1340
      2 H2          9.0849    9.9904   23.4489 H       1  lig         0.1340
      3 H3         10.5019    8.0954   19.1760 H       1  lig         0.1475
      4 H4          7.7041    8.2365   22.4065 H       1  lig         0.1475
      5 H5         11.7010   11.7879   21.8063 H       1  lig         0.0877
      6 H6         10.8497   11.6222   23.3092 H       1  lig         0.0877
      7 H7         12.9497   11.1736   24.1254 H       1  lig         0.0966
      8 H8         13.9678   11.6437   21.9507 H       1  lig         0.4431
      9 H9         14.7187   10.3225   22.6166 H       1  lig         0.4431
     10 H10        13.5852   10.1100   21.4148 H       1  lig         0.4431
     11 H11         8.1965    6.3999   20.7214 H       1  lig         0.4214
     12 C1         10.9791    9.4596   20.7263 C.ar    1  lig        -0.0999
     13 C2          9.3983    9.5562   22.5024 C.ar    1  lig        -0.0999
     14 C3         10.1961    8.5095   20.1305 C.ar    1  lig        -0.1787
     15 C4          8.6206    8.5684   21.9290 C.ar    1  lig        -0.1787
     16 C5         10.5861    9.9830   21.9198 C.ar    1  lig        -0.1394
     17 C6          9.0540    8.0365   20.7203 C.ar    1  lig         0.1292
     18 C7         12.5421    9.1429   23.7287 C.2     1  lig         0.9321
     19 C8         11.4359   11.0542   22.5766 C.3     1  lig        -0.0452
     20 C9         12.7190   10.5655   23.2494 C.3     1  lig        -0.0740
     21 N1         13.8024   10.6754   22.2733 N.4     1  lig        -0.8252
     22 O1         12.9247    8.2843   22.9369 O.co2   1  lig        -0.7573
     23 O2         12.0150    8.8420   24.8379 O.co2   1  lig        -0.7573
     24 O3          8.3682    7.1631   20.0972 O.3     1  lig        -0.4913
@<TRIPOS>BOND
     1     1    12    1
     2     2    13    1
     3     3    14    1
     4     4    15    1
     5     5    19    1
     6     6    19    1
     7     7    20    1
     8     8    21    1
     9     9    21    1
    10    10    21    1
    11    11    24    1
    12    12    14   ar
    13    12    16   ar
    14    13    15   ar
    15    13    16   ar
    16    14    17   ar
    17    15    17   ar
    18    16    19    1
    19    17    24    1
    20    18    20    1
    21    18    22    1
    22    18    23    1
    23    19    20    1
    24    20    21    1
@<TRIPOS>SUBSTRUCTURE
     1 lig         1 TEMP              0 ****  ****    0 ROOT


########## Name:		ligand
########## HA_RMSDs:		13.4658
########## HA_RMSDh:		13.4203
########## HA_RMSDm:		11.2766
########## Cluster Size:	1
##########    Grid Score:          -19.315004
##########      Grid_vdw:          -19.028191
##########       Grid_es:           -0.286814
##########    Int_energy:            2.392682

@<TRIPOS>MOLECULE
ligand
 24 24 1 0 0
SMALL
No Charge or Current Charge


@<TRIPOS>ATOM
      1 H1          7.0695    9.0597   24.1488 H       1  lig         0.1340
      2 H2          9.8809    9.3710   20.9528 H       1  lig         0.1340
      3 H3          5.7901    7.4642   22.8199 H       1  lig         0.1475
      4 H4          8.5670    7.7983   19.5855 H       1  lig         0.1475
      5 H5          9.0159   11.3227   23.1959 H       1  lig         0.0877
      6 H6          9.1177   10.2062   24.5202 H       1  lig         0.0877
      7 H7         11.1256    9.6077   22.4235 H       1  lig         0.0966
      8 H8         11.0952    8.7132   24.7007 H       1  lig         0.4431
      9 H9         12.4716    9.6181   24.5016 H       1  lig         0.4431
     10 H10        11.1763   10.2562   25.3320 H       1  lig         0.4431
     11 H11         6.3149    5.8685   21.0586 H       1  lig         0.4214
     12 C1          7.4050    8.7970   23.1488 C.ar    1  lig        -0.0999
     13 C2          8.9637    8.9494   21.3571 C.ar    1  lig        -0.0999
     14 C3          6.6924    7.8983   22.4035 C.ar    1  lig        -0.1787
     15 C4          8.2302    8.0733   20.5800 C.ar    1  lig        -0.1787
     16 C5          8.5419    9.3319   22.6253 C.ar    1  lig        -0.1394
     17 C6          7.0632    7.5563   21.1300 C.ar    1  lig         0.1292
     18 C7         11.4227   11.6160   22.9937 C.2     1  lig         0.9321
     19 C8          9.3514   10.3114   23.4538 C.3     1  lig        -0.0452
     20 C9         10.8682   10.2384   23.2756 C.3     1  lig        -0.0740
     21 N1         11.4326    9.6694   24.4989 N.4     1  lig        -0.8252
     22 O1         12.1485   11.6834   22.0042 O.co2   1  lig        -0.7573
     23 O2         11.1946   12.6219   23.7252 O.co2   1  lig        -0.7573
     24 O3          6.3585    6.7004   20.5038 O.3     1  lig        -0.4913
@<TRIPOS>BOND
     1     1    12    1
     2     2    13    1
     3     3    14    1
     4     4    15    1
     5     5    19    1
     6     6    19    1
     7     7    20    1
     8     8    21    1
     9     9    21    1
    10    10    21    1
    11    11    24    1
    12    12    14   ar
    13    12    16   ar
    14    13    15   ar
    15    13    16   ar
    16    14    17   ar
    17    15    17   ar
    18    16    19    1
    19    17    24    1
    20    18    20    1
    21    18    22    1
    22    18    23    1
    23    19    20    1
    24    20    21    1
@<TRIPOS>SUBSTRUCTURE
     1 lig         1 TEMP              0 ****  ****    0 ROOT


########## Name:		ligand
########## HA_RMSDs:		15.8788
########## HA_RMSDh:		15.8614
########## HA_RMSDm:		13.4711
########## Cluster Size:	3
##########    Grid Score:          -19.301130
##########      Grid_vdw:          -16.579205
##########       Grid_es:           -2.721926
##########    Int_energy:            2.815850

@<TRIPOS>MOLECULE
ligand
 24 24 1 0 0
SMALL
No Charge or Current Charge


@<TRIPOS>ATOM
      1 H1         26.2353    5.8623   12.3286 H       1  lig         0.1340
      2 H2         22.2652    4.2958   12.3169 H       1  lig         0.1340
      3 H3         25.3068    8.1175   12.3013 H       1  lig         0.1475
      4 H4         21.3212    6.5699   12.2389 H       1  lig         0.1475
      5 H5         25.6686    3.5136   13.0978 H       1  lig         0.0877
      6 H6         24.1314    2.8173   12.6943 H       1  lig         0.0877
      7 H7         26.2514    3.6794   10.6617 H       1  lig         0.0966
      8 H8         23.9520    3.9049    9.8561 H       1  lig         0.4431
      9 H9         24.6511    2.5959    9.1141 H       1  lig         0.4431
     10 H10        23.5934    2.3611   10.3794 H       1  lig         0.4431
     11 H11        21.8722    8.6828   12.1869 H       1  lig         0.4214
     12 C1         25.1577    6.0032   12.3027 C.ar    1  lig        -0.0999
     13 C2         22.9355    5.1520   12.3033 C.ar    1  lig        -0.0999
     14 C3         24.6342    7.2667   12.2929 C.ar    1  lig        -0.1787
     15 C4         22.3965    6.4233   12.2528 C.ar    1  lig        -0.1787
     16 C5         24.3092    4.9388   12.3014 C.ar    1  lig        -0.1394
     17 C6         23.2845    7.4924   12.2352 C.ar    1  lig         0.1292
     18 C7         26.0766    1.6542   11.2228 C.2     1  lig         0.9321
     19 C8         24.8804    3.5340   12.3362 C.3     1  lig        -0.0452
     20 C9         25.4597    3.0188   11.0182 C.3     1  lig        -0.0740
     21 N1         24.3729    2.9788   10.0405 N.4     1  lig        -0.8252
     22 O1         25.5496    0.9810   12.1058 O.co2   1  lig        -0.7573
     23 O2         27.0752    1.2361   10.5695 O.co2   1  lig        -0.7573
     24 O3         22.8713    8.6968   12.2455 O.3     1  lig        -0.4913
@<TRIPOS>BOND
     1     1    12    1
     2     2    13    1
     3     3    14    1
     4     4    15    1
     5     5    19    1
     6     6    19    1
     7     7    20    1
     8     8    21    1
     9     9    21    1
    10    10    21    1
    11    11    24    1
    12    12    14   ar
    13    12    16   ar
    14    13    15   ar
    15    13    16   ar
    16    14    17   ar
    17    15    17   ar
    18    16    19    1
    19    17    24    1
    20    18    20    1
    21    18    22    1
    22    18    23    1
    23    19    20    1
    24    20    21    1
@<TRIPOS>SUBSTRUCTURE
     1 lig         1 TEMP              0 ****  ****    0 ROOT


########## Name:		ligand
########## HA_RMSDs:		13.3990
########## HA_RMSDh:		13.3435
########## HA_RMSDm:		11.5653
########## Cluster Size:	1
##########    Grid Score:          -19.284384
##########      Grid_vdw:          -14.966791
##########       Grid_es:           -4.317593
##########    Int_energy:            2.184737

@<TRIPOS>MOLECULE
ligand
 24 24 1 0 0
SMALL
No Charge or Current Charge


@<TRIPOS>ATOM
      1 H1         10.8691   10.7376   21.9110 H       1  lig         0.1340
      2 H2          7.3408    9.1585   23.7203 H       1  lig         0.1340
      3 H3         10.2917    9.5684   19.8498 H       1  lig         0.1475
      4 H4          6.7779    7.9348   21.6576 H       1  lig         0.1475
      5 H5         10.3673   11.3771   24.0238 H       1  lig         0.0877
      6 H6          8.7005   11.4440   24.5013 H       1  lig         0.0877
      7 H7          8.9029    9.3849   25.8140 H       1  lig         0.0966
      8 H8          9.7310   11.4691   26.7924 H       1  lig         0.4431
      9 H9         10.6686   10.2140   27.3388 H       1  lig         0.4431
     10 H10        11.2402   11.2068   26.1297 H       1  lig         0.4431
     11 H11         8.9233    8.4704   18.8280 H       1  lig         0.4214
     12 C1          9.9739   10.1222   21.8709 C.ar    1  lig        -0.0999
     13 C2          7.9976    9.2365   22.8571 C.ar    1  lig        -0.0999
     14 C3          9.6448    9.4699   20.7146 C.ar    1  lig        -0.1787
     15 C4          7.6768    8.5411   21.7070 C.ar    1  lig        -0.1787
     16 C5          9.1537   10.0028   22.9506 C.ar    1  lig        -0.1394
     17 C6          8.5408    8.6641   20.6252 C.ar    1  lig         0.1292
     18 C7         10.7662    8.7605   25.0489 C.2     1  lig         0.9321
     19 C8          9.4980   10.7417   24.2298 C.3     1  lig        -0.0452
     20 C9          9.8100    9.8633   25.4419 C.3     1  lig        -0.0740
     21 N1         10.3758   10.7235   26.4805 N.4     1  lig        -0.8252
     22 O1         11.8695    9.1493   24.6719 O.co2   1  lig        -0.7573
     23 O2         10.4608    7.5337   25.0693 O.co2   1  lig        -0.7573
     24 O3          8.2904    8.1022   19.5104 O.3     1  lig        -0.4913
@<TRIPOS>BOND
     1     1    12    1
     2     2    13    1
     3     3    14    1
     4     4    15    1
     5     5    19    1
     6     6    19    1
     7     7    20    1
     8     8    21    1
     9     9    21    1
    10    10    21    1
    11    11    24    1
    12    12    14   ar
    13    12    16   ar
    14    13    15   ar
    15    13    16   ar
    16    14    17   ar
    17    15    17   ar
    18    16    19    1
    19    17    24    1
    20    18    20    1
    21    18    22    1
    22    18    23    1
    23    19    20    1
    24    20    21    1
@<TRIPOS>SUBSTRUCTURE
     1 lig         1 TEMP              0 ****  ****    0 ROOT


########## Name:		ligand
########## HA_RMSDs:		10.8240
########## HA_RMSDh:		10.7672
########## HA_RMSDm:		9.0345
########## Cluster Size:	1
##########    Grid Score:          -19.277754
##########      Grid_vdw:          -17.286980
##########       Grid_es:           -1.990775
##########    Int_energy:            5.094807

@<TRIPOS>MOLECULE
ligand
 24 24 1 0 0
SMALL
No Charge or Current Charge


@<TRIPOS>ATOM
      1 H1         11.4289    9.7325   21.6128 H       1  lig         0.1340
      2 H2         13.0834   12.5744   24.3334 H       1  lig         0.1340
      3 H3          9.2097   10.2412   22.4876 H       1  lig         0.1475
      4 H4         10.8507   13.0566   25.2561 H       1  lig         0.1475
      5 H5         13.6482   10.2763   21.4303 H       1  lig         0.0877
      6 H6         14.2992   11.7320   22.1141 H       1  lig         0.0877
      7 H7         14.6133   10.3083   24.3204 H       1  lig         0.0966
      8 H8         16.3906   11.1236   22.8496 H       1  lig         0.4431
      9 H9         16.7625    9.5797   23.3304 H       1  lig         0.4431
     10 H10        16.1449    9.8442   21.8062 H       1  lig         0.4431
     11 H11         8.1127   11.1232   23.9962 H       1  lig         0.4214
     12 C1         11.3169   10.4577   22.4148 C.ar    1  lig        -0.0999
     13 C2         12.2168   12.0522   23.9348 C.ar    1  lig        -0.0999
     14 C3         10.0731   10.7489   22.9035 C.ar    1  lig        -0.1787
     15 C4         10.9696   12.3247   24.4635 C.ar    1  lig        -0.1787
     16 C5         12.3964   11.1045   22.9338 C.ar    1  lig        -0.1394
     17 C6          9.8863   11.6367   23.9297 C.ar    1  lig         0.1292
     18 C7         14.2638    8.5233   23.2533 C.2     1  lig         0.9321
     19 C8         13.7772   10.8054   22.3817 C.3     1  lig        -0.0452
     20 C9         14.6886    9.9736   23.2848 C.3     1  lig        -0.0740
     21 N1         16.0611   10.1444   22.8096 N.4     1  lig        -0.8252
     22 O1         13.6956    8.1783   22.2195 O.co2   1  lig        -0.7573
     23 O2         14.4416    7.7243   24.2170 O.co2   1  lig        -0.7573
     24 O3          8.6968   11.8685   24.3204 O.3     1  lig        -0.4913
@<TRIPOS>BOND
     1     1    12    1
     2     2    13    1
     3     3    14    1
     4     4    15    1
     5     5    19    1
     6     6    19    1
     7     7    20    1
     8     8    21    1
     9     9    21    1
    10    10    21    1
    11    11    24    1
    12    12    14   ar
    13    12    16   ar
    14    13    15   ar
    15    13    16   ar
    16    14    17   ar
    17    15    17   ar
    18    16    19    1
    19    17    24    1
    20    18    20    1
    21    18    22    1
    22    18    23    1
    23    19    20    1
    24    20    21    1
@<TRIPOS>SUBSTRUCTURE
     1 lig         1 TEMP              0 ****  ****    0 ROOT


########## Name:		ligand
########## HA_RMSDs:		12.2928
########## HA_RMSDh:		12.2552
########## HA_RMSDm:		10.3990
########## Cluster Size:	1
##########    Grid Score:          -19.273581
##########      Grid_vdw:          -19.796249
##########       Grid_es:            0.522670
##########    Int_energy:            1.742594

@<TRIPOS>MOLECULE
ligand
 24 24 1 0 0
SMALL
No Charge or Current Charge


@<TRIPOS>ATOM
      1 H1         12.0682    8.9944   20.6304 H       1  lig         0.1340
      2 H2          8.9085   10.7092   22.9307 H       1  lig         0.1340
      3 H3         13.6663   10.3394   21.8898 H       1  lig         0.1475
      4 H4         10.5123   12.1074   24.1725 H       1  lig         0.1475
      5 H5          8.6628    9.6158   20.4573 H       1  lig         0.0877
      6 H6          9.8751    8.4357   20.0723 H       1  lig         0.0877
      7 H7          8.3959    8.2812   22.7308 H       1  lig         0.0966
      8 H8         10.3865    6.9106   22.3496 H       1  lig         0.4431
      9 H9          9.0542    5.9219   22.3697 H       1  lig         0.4431
     10 H10         9.7487    6.3430   20.9154 H       1  lig         0.4431
     11 H11        12.7786   12.1047   24.6411 H       1  lig         0.4214
     12 C1         11.7137    9.6766   21.3990 C.ar    1  lig        -0.0999
     13 C2          9.9686   10.6402   22.6985 C.ar    1  lig        -0.0999
     14 C3         12.6081   10.4280   22.1104 C.ar    1  lig        -0.1787
     15 C4         10.8596   11.4333   23.3959 C.ar    1  lig        -0.1787
     16 C5         10.3876    9.7846   21.6861 C.ar    1  lig        -0.1394
     17 C6         12.2059   11.3186   23.0702 C.ar    1  lig         0.1292
     18 C7          7.3232    7.5561   21.0663 C.2     1  lig         0.9321
     19 C8          9.3904    8.9377   20.9184 C.3     1  lig        -0.0452
     20 C9          8.6340    7.8929   21.7394 C.3     1  lig        -0.0740
     21 N1          9.4946    6.7171   21.8638 N.4     1  lig        -0.8252
     22 O1          7.3967    7.4045   19.8488 O.co2   1  lig        -0.7573
     23 O2          6.2248    7.4659   21.6861 O.co2   1  lig        -0.7573
     24 O3         13.0981   11.9714   23.7021 O.3     1  lig        -0.4913
@<TRIPOS>BOND
     1     1    12    1
     2     2    13    1
     3     3    14    1
     4     4    15    1
     5     5    19    1
     6     6    19    1
     7     7    20    1
     8     8    21    1
     9     9    21    1
    10    10    21    1
    11    11    24    1
    12    12    14   ar
    13    12    16   ar
    14    13    15   ar
    15    13    16   ar
    16    14    17   ar
    17    15    17   ar
    18    16    19    1
    19    17    24    1
    20    18    20    1
    21    18    22    1
    22    18    23    1
    23    19    20    1
    24    20    21    1
@<TRIPOS>SUBSTRUCTURE
     1 lig         1 TEMP              0 ****  ****    0 ROOT


########## Name:		ligand
########## HA_RMSDs:		13.8897
########## HA_RMSDh:		13.8886
########## HA_RMSDm:		12.3702
########## Cluster Size:	1
##########    Grid Score:          -19.263332
##########      Grid_vdw:          -16.617895
##########       Grid_es:           -2.645437
##########    Int_energy:            3.910349

@<TRIPOS>MOLECULE
ligand
 24 24 1 0 0
SMALL
No Charge or Current Charge


@<TRIPOS>ATOM
      1 H1          6.5282    8.9431   23.3886 H       1  lig         0.1340
      2 H2          9.6989    8.6682   20.5450 H       1  lig         0.1340
      3 H3          7.6649   10.8393   24.4187 H       1  lig         0.1475
      4 H4         10.8770   10.5510   21.6109 H       1  lig         0.1475
      5 H5          6.2903    7.7843   21.1331 H       1  lig         0.0877
      6 H6          7.7128    7.3459   20.2415 H       1  lig         0.0877
      7 H7          7.0289    5.3628   21.3988 H       1  lig         0.0966
      8 H8          5.5880    6.5041   23.0138 H       1  lig         0.4431
      9 H9          6.5942    5.4706   23.8338 H       1  lig         0.4431
     10 H10         6.9235    7.1033   23.8158 H       1  lig         0.4431
     11 H11        10.6116   12.1284   23.1176 H       1  lig         0.4214
     12 C1          7.4828    9.2811   22.9935 C.ar    1  lig        -0.0999
     13 C2          9.2578    9.1509   21.4138 C.ar    1  lig        -0.0999
     14 C3          8.1198   10.3476   23.5657 C.ar    1  lig        -0.1787
     15 C4          9.9294   10.2018   22.0087 C.ar    1  lig        -0.1787
     16 C5          8.0533    8.6733   21.9174 C.ar    1  lig        -0.1394
     17 C6          9.3353   10.7925   23.1177 C.ar    1  lig         0.1292
     18 C7          8.8421    5.8470   22.3604 C.2     1  lig         0.9321
     19 C8          7.3425    7.5047   21.2615 C.3     1  lig        -0.0452
     20 C9          7.4074    6.1774   22.0179 C.3     1  lig        -0.0740
     21 N1          6.5826    6.3091   23.2183 N.4     1  lig        -0.8252
     22 O1          9.3815    5.0516   21.5942 O.co2   1  lig        -0.7573
     23 O2          9.4436    6.3166   23.3686 O.co2   1  lig        -0.7573
     24 O3          9.8593   11.8015   23.6910 O.3     1  lig        -0.4913
@<TRIPOS>BOND
     1     1    12    1
     2     2    13    1
     3     3    14    1
     4     4    15    1
     5     5    19    1
     6     6    19    1
     7     7    20    1
     8     8    21    1
     9     9    21    1
    10    10    21    1
    11    11    24    1
    12    12    14   ar
    13    12    16   ar
    14    13    15   ar
    15    13    16   ar
    16    14    17   ar
    17    15    17   ar
    18    16    19    1
    19    17    24    1
    20    18    20    1
    21    18    22    1
    22    18    23    1
    23    19    20    1
    24    20    21    1
@<TRIPOS>SUBSTRUCTURE
     1 lig         1 TEMP              0 ****  ****    0 ROOT


########## Name:		ligand
########## HA_RMSDs:		15.7222
########## HA_RMSDh:		15.6559
########## HA_RMSDm:		13.8280
########## Cluster Size:	1
##########    Grid Score:          -19.255255
##########      Grid_vdw:          -11.707815
##########       Grid_es:           -7.547440
##########    Int_energy:            4.611559

@<TRIPOS>MOLECULE
ligand
 24 24 1 0 0
SMALL
No Charge or Current Charge


@<TRIPOS>ATOM
      1 H1         24.5819    7.3107   12.0138 H       1  lig         0.1340
      2 H2         25.4987    4.4167   15.0137 H       1  lig         0.1340
      3 H3         22.4182    6.2334   11.6870 H       1  lig         0.1475
      4 H4         23.3357    3.2939   14.6537 H       1  lig         0.1475
      5 H5         26.5879    7.4405   13.0440 H       1  lig         0.0877
      6 H6         26.5717    7.0491   14.7343 H       1  lig         0.0877
      7 H7         27.9842    5.1623   14.4605 H       1  lig         0.0966
      8 H8         29.1034    7.2719   13.9281 H       1  lig         0.4431
      9 H9         29.7622    6.0684   12.9950 H       1  lig         0.4431
     10 H10        28.6641    7.1263   12.3244 H       1  lig         0.4431
     11 H11        20.9141    4.8690   13.2006 H       1  lig         0.4214
     12 C1         24.3240    6.4283   12.5938 C.ar    1  lig        -0.0999
     13 C2         24.8111    4.8090   14.2681 C.ar    1  lig        -0.0999
     14 C3         23.1092    5.8254   12.4165 C.ar    1  lig        -0.1787
     15 C4         23.6032    4.1682   14.0689 C.ar    1  lig        -0.1787
     16 C5         25.1840    5.9179   13.5173 C.ar    1  lig        -0.1394
     17 C6         22.7514    4.6976   13.1065 C.ar    1  lig         0.1292
     18 C7         27.4899    4.6813   12.4677 C.2     1  lig         0.9321
     19 C8         26.5239    6.5940   13.7376 C.3     1  lig        -0.0452
     20 C9         27.7554    5.7085   13.5442 C.3     1  lig        -0.0740
     21 N1         28.8779    6.5784   13.1951 N.4     1  lig        -0.8252
     22 O1         26.9920    5.1341   11.4392 O.co2   1  lig        -0.7573
     23 O2         27.7246    3.4469   12.6095 O.co2   1  lig        -0.7573
     24 O3         21.5969    4.2021   12.8993 O.3     1  lig        -0.4913
@<TRIPOS>BOND
     1     1    12    1
     2     2    13    1
     3     3    14    1
     4     4    15    1
     5     5    19    1
     6     6    19    1
     7     7    20    1
     8     8    21    1
     9     9    21    1
    10    10    21    1
    11    11    24    1
    12    12    14   ar
    13    12    16   ar
    14    13    15   ar
    15    13    16   ar
    16    14    17   ar
    17    15    17   ar
    18    16    19    1
    19    17    24    1
    20    18    20    1
    21    18    22    1
    22    18    23    1
    23    19    20    1
    24    20    21    1
@<TRIPOS>SUBSTRUCTURE
     1 lig         1 TEMP              0 ****  ****    0 ROOT


########## Name:		ligand
########## HA_RMSDs:		12.3515
########## HA_RMSDh:		12.3045
########## HA_RMSDm:		10.5185
########## Cluster Size:	1
##########    Grid Score:          -19.250370
##########      Grid_vdw:          -16.687338
##########       Grid_es:           -2.563032
##########    Int_energy:            4.233607

@<TRIPOS>MOLECULE
ligand
 24 24 1 0 0
SMALL
No Charge or Current Charge


@<TRIPOS>ATOM
      1 H1         10.7717    8.2912   23.7047 H       1  lig         0.1340
      2 H2         13.0128    9.8645   20.4308 H       1  lig         0.1340
      3 H3         12.7410    7.0318   24.4006 H       1  lig         0.1475
      4 H4         14.9905    8.5565   21.0992 H       1  lig         0.1475
      5 H5         10.3120   10.6440   22.3893 H       1  lig         0.0877
      6 H6         10.7803   10.5710   20.7202 H       1  lig         0.0877
      7 H7          8.6910    9.6207   20.5062 H       1  lig         0.0966
      8 H8          8.2120    9.9078   22.8884 H       1  lig         0.4431
      9 H9          7.6611    8.4178   22.4095 H       1  lig         0.4431
     10 H10         9.0921    8.5374   23.2536 H       1  lig         0.4431
     11 H11        15.5385    6.7814   22.4521 H       1  lig         0.4214
     12 C1         11.6871    8.3533   23.1218 C.ar    1  lig        -0.0999
     13 C2         12.9577    9.2238   21.3078 C.ar    1  lig        -0.0999
     14 C3         12.7946    7.6524   23.5128 C.ar    1  lig        -0.1787
     15 C4         14.0703    8.4890   21.6707 C.ar    1  lig        -0.1787
     16 C5         11.7624    9.1382   22.0122 C.ar    1  lig        -0.1394
     17 C6         13.9615    7.6805   22.7960 C.ar    1  lig         0.1292
     18 C7          9.6799    7.7700   20.7153 C.2     1  lig         0.9321
     19 C8         10.5462    9.9376   21.5844 C.3     1  lig        -0.0452
     20 C9          9.2920    9.1222   21.2682 C.3     1  lig        -0.0740
     21 N1          8.5190    8.9987   22.5034 N.4     1  lig        -0.8252
     22 O1         10.1787    7.7997   19.5924 O.co2   1  lig        -0.7573
     23 O2          9.4842    6.6833   21.3313 O.co2   1  lig        -0.7573
     24 O3         14.9554    7.0143   23.2315 O.3     1  lig        -0.4913
@<TRIPOS>BOND
     1     1    12    1
     2     2    13    1
     3     3    14    1
     4     4    15    1
     5     5    19    1
     6     6    19    1
     7     7    20    1
     8     8    21    1
     9     9    21    1
    10    10    21    1
    11    11    24    1
    12    12    14   ar
    13    12    16   ar
    14    13    15   ar
    15    13    16   ar
    16    14    17   ar
    17    15    17   ar
    18    16    19    1
    19    17    24    1
    20    18    20    1
    21    18    22    1
    22    18    23    1
    23    19    20    1
    24    20    21    1
@<TRIPOS>SUBSTRUCTURE
     1 lig         1 TEMP              0 ****  ****    0 ROOT


########## Name:		ligand
########## HA_RMSDs:		12.2023
########## HA_RMSDh:		12.1478
########## HA_RMSDm:		10.3557
########## Cluster Size:	1
##########    Grid Score:          -19.249287
##########      Grid_vdw:          -17.391567
##########       Grid_es:           -1.857718
##########    Int_energy:            1.421730

@<TRIPOS>MOLECULE
ligand
 24 24 1 0 0
SMALL
No Charge or Current Charge


@<TRIPOS>ATOM
      1 H1          8.7618   10.1174   23.7242 H       1  lig         0.1340
      2 H2         12.1222   10.6796   21.1537 H       1  lig         0.1340
      3 H3          7.8822    8.4710   22.1543 H       1  lig         0.1475
      4 H4         11.2149    9.0546   19.5396 H       1  lig         0.1475
      5 H5         11.6114   12.2720   22.9326 H       1  lig         0.0877
      6 H6         10.2391   12.1021   23.9806 H       1  lig         0.0877
      7 H7         12.6235   10.2077   24.1919 H       1  lig         0.0966
      8 H8         10.5135    9.5831   25.2619 H       1  lig         0.4431
      9 H9         11.6112    9.9828   26.4402 H       1  lig         0.4431
     10 H10        10.4266   11.0722   26.0109 H       1  lig         0.4431
     11 H11         9.3878    7.8677   19.0951 H       1  lig         0.4214
     12 C1          9.3057    9.8986   22.8087 C.ar    1  lig        -0.0999
     13 C2         11.1740   10.1906   21.3641 C.ar    1  lig        -0.0999
     14 C3          8.8174    8.9718   21.9292 C.ar    1  lig        -0.1787
     15 C4         10.6701    9.2856   20.4495 C.ar    1  lig        -0.1787
     16 C5         10.4846   10.5175   22.5262 C.ar    1  lig        -0.1394
     17 C6          9.4552    8.6821   20.7522 C.ar    1  lig         0.1292
     18 C7         12.8148   12.0620   25.1777 C.2     1  lig         0.9321
     19 C8         11.0457   11.5293   23.5072 C.3     1  lig        -0.0452
     20 C9         11.9514   10.9633   24.6014 C.3     1  lig        -0.0740
     21 N1         11.0935   10.3602   25.6207 N.4     1  lig        -0.8252
     22 O1         13.8500   12.2811   24.5526 O.co2   1  lig        -0.7573
     23 O2         12.5262   12.6925   26.2351 O.co2   1  lig        -0.7573
     24 O3          8.9482    7.7959   19.9913 O.3     1  lig        -0.4913
@<TRIPOS>BOND
     1     1    12    1
     2     2    13    1
     3     3    14    1
     4     4    15    1
     5     5    19    1
     6     6    19    1
     7     7    20    1
     8     8    21    1
     9     9    21    1
    10    10    21    1
    11    11    24    1
    12    12    14   ar
    13    12    16   ar
    14    13    15   ar
    15    13    16   ar
    16    14    17   ar
    17    15    17   ar
    18    16    19    1
    19    17    24    1
    20    18    20    1
    21    18    22    1
    22    18    23    1
    23    19    20    1
    24    20    21    1
@<TRIPOS>SUBSTRUCTURE
     1 lig         1 TEMP              0 ****  ****    0 ROOT


########## Name:		ligand
########## HA_RMSDs:		11.8011
########## HA_RMSDh:		11.7776
########## HA_RMSDm:		10.2145
########## Cluster Size:	1
##########    Grid Score:          -19.234632
##########      Grid_vdw:          -17.965149
##########       Grid_es:           -1.269484
##########    Int_energy:            4.108600

@<TRIPOS>MOLECULE
ligand
 24 24 1 0 0
SMALL
No Charge or Current Charge


@<TRIPOS>ATOM
      1 H1         12.5491   10.5298   21.5068 H       1  lig         0.1340
      2 H2          8.5280   10.5383   22.9374 H       1  lig         0.1340
      3 H3         13.2025   11.8614   23.4429 H       1  lig         0.1475
      4 H4          9.1718   11.9253   24.8690 H       1  lig         0.1475
      5 H5          9.3367   10.1932   20.3299 H       1  lig         0.0877
      6 H6         10.9237    9.5037   20.2004 H       1  lig         0.0877
      7 H7          9.7365    7.5394   20.4237 H       1  lig         0.0966
      8 H8          7.5985    8.7265   20.5042 H       1  lig         0.4431
      9 H9          7.5767    7.5113   21.6337 H       1  lig         0.4431
     10 H10         7.8324    9.0845   22.1175 H       1  lig         0.4431
     11 H11        10.9074   12.7795   25.8891 H       1  lig         0.4214
     12 C1         11.7987   10.8339   22.2321 C.ar    1  lig        -0.0999
     13 C2          9.5649   10.8454   23.0523 C.ar    1  lig        -0.0999
     14 C3         12.1632   11.5761   23.3216 C.ar    1  lig        -0.1787
     15 C4          9.9148   11.6288   24.1354 C.ar    1  lig        -0.1787
     16 C5         10.4947   10.4704   22.0894 C.ar    1  lig        -0.1394
     17 C6         11.2487   12.0029   24.2477 C.ar    1  lig         0.1292
     18 C7         10.1459    7.7098   22.4853 C.2     1  lig         0.9321
     19 C8         10.0853    9.6273   20.8966 C.3     1  lig        -0.0452
     20 C9          9.5124    8.2477   21.2227 C.3     1  lig        -0.0740
     21 N1          8.0638    8.3899   21.3639 N.4     1  lig        -0.8252
     22 O1         11.3567    7.5137   22.4075 O.co2   1  lig        -0.7573
     23 O2          9.4922    7.4465   23.5351 O.co2   1  lig        -0.7573
     24 O3         11.6659   12.6767   25.2443 O.3     1  lig        -0.4913
@<TRIPOS>BOND
     1     1    12    1
     2     2    13    1
     3     3    14    1
     4     4    15    1
     5     5    19    1
     6     6    19    1
     7     7    20    1
     8     8    21    1
     9     9    21    1
    10    10    21    1
    11    11    24    1
    12    12    14   ar
    13    12    16   ar
    14    13    15   ar
    15    13    16   ar
    16    14    17   ar
    17    15    17   ar
    18    16    19    1
    19    17    24    1
    20    18    20    1
    21    18    22    1
    22    18    23    1
    23    19    20    1
    24    20    21    1
@<TRIPOS>SUBSTRUCTURE
     1 lig         1 TEMP              0 ****  ****    0 ROOT


########## Name:		ligand
########## HA_RMSDs:		12.9207
########## HA_RMSDh:		12.8782
########## HA_RMSDm:		8.7547
########## Cluster Size:	1
##########    Grid Score:          -19.234264
##########      Grid_vdw:          -17.538324
##########       Grid_es:           -1.695940
##########    Int_energy:            4.623068

@<TRIPOS>MOLECULE
ligand
 24 24 1 0 0
SMALL
No Charge or Current Charge


@<TRIPOS>ATOM
      1 H1         17.3229   17.6883   29.7070 H       1  lig         0.1340
      2 H2         14.9421   14.3443   28.5386 H       1  lig         0.1340
      3 H3         17.1378   18.5665   27.4391 H       1  lig         0.1475
      4 H4         14.7929   15.2003   26.2333 H       1  lig         0.1475
      5 H5         15.9895   14.3467   30.6400 H       1  lig         0.0877
      6 H6         17.2992   15.4186   31.0228 H       1  lig         0.0877
      7 H7         15.3498   15.5267   32.6367 H       1  lig         0.0966
      8 H8         13.6014   15.3139   30.9383 H       1  lig         0.4431
      9 H9         13.3687   16.7315   31.7684 H       1  lig         0.4431
     10 H10        14.0591   16.7653   30.2529 H       1  lig         0.4431
     11 H11        15.1228   17.0943   25.0762 H       1  lig         0.4214
     12 C1         16.7713   17.1305   28.9544 C.ar    1  lig        -0.0999
     13 C2         15.4362   15.2787   28.2830 C.ar    1  lig        -0.0999
     14 C3         16.6614   17.6234   27.6833 C.ar    1  lig        -0.1787
     15 C4         15.3523   15.7471   26.9857 C.ar    1  lig        -0.1787
     16 C5         16.1636   15.9511   29.2583 C.ar    1  lig        -0.1394
     17 C6         15.9979   16.9435   26.6965 C.ar    1  lig         0.1292
     18 C7         15.9678   17.4578   32.0570 C.2     1  lig         0.9321
     19 C8         16.2603   15.4086   30.6715 C.3     1  lig        -0.0452
     20 C9         15.3848   16.1063   31.7130 C.3     1  lig        -0.0740
     21 N1         14.0387   16.2255   31.1542 N.4     1  lig        -0.8252
     22 O1         17.1660   17.4442   32.3304 O.co2   1  lig        -0.7573
     23 O2         15.2850   18.5213   32.0970 O.co2   1  lig        -0.7573
     24 O3         15.9239   17.4736   25.5411 O.3     1  lig        -0.4913
@<TRIPOS>BOND
     1     1    12    1
     2     2    13    1
     3     3    14    1
     4     4    15    1
     5     5    19    1
     6     6    19    1
     7     7    20    1
     8     8    21    1
     9     9    21    1
    10    10    21    1
    11    11    24    1
    12    12    14   ar
    13    12    16   ar
    14    13    15   ar
    15    13    16   ar
    16    14    17   ar
    17    15    17   ar
    18    16    19    1
    19    17    24    1
    20    18    20    1
    21    18    22    1
    22    18    23    1
    23    19    20    1
    24    20    21    1
@<TRIPOS>SUBSTRUCTURE
     1 lig         1 TEMP              0 ****  ****    0 ROOT


########## Name:		ligand
########## HA_RMSDs:		14.1865
########## HA_RMSDh:		14.1048
########## HA_RMSDm:		12.3134
########## Cluster Size:	1
##########    Grid Score:          -19.233715
##########      Grid_vdw:          -13.050785
##########       Grid_es:           -6.182930
##########    Int_energy:            2.647579

@<TRIPOS>MOLECULE
ligand
 24 24 1 0 0
SMALL
No Charge or Current Charge


@<TRIPOS>ATOM
      1 H1         24.2048    8.1539   13.7163 H       1  lig         0.1340
      2 H2         25.4353    5.3016   16.6431 H       1  lig         0.1340
      3 H3         26.2744    9.3862   14.0997 H       1  lig         0.1475
      4 H4         27.5045    6.5683   17.0711 H       1  lig         0.1475
      5 H5         23.2930    5.1593   15.7403 H       1  lig         0.0877
      6 H6         22.5253    6.5350   15.0131 H       1  lig         0.0877
      7 H7         23.1757    5.8353   12.7684 H       1  lig         0.0966
      8 H8         21.2896    4.6798   13.8146 H       1  lig         0.4431
      9 H9         22.0843    3.6135   12.8224 H       1  lig         0.4431
     10 H10        22.3207    3.5424   14.4697 H       1  lig         0.4431
     11 H11        28.6707    8.5403   14.9832 H       1  lig         0.4214
     12 C1         24.9158    7.7993   14.4582 C.ar    1  lig        -0.0999
     13 C2         25.6253    6.2173   16.0881 C.ar    1  lig        -0.0999
     14 C3         26.0797    8.4854   14.6713 C.ar    1  lig        -0.1787
     15 C4         26.7855    6.9242   16.3401 C.ar    1  lig        -0.1787
     16 C5         24.6805    6.6641   15.1715 C.ar    1  lig        -0.1394
     17 C6         26.9929    8.0902   15.6126 C.ar    1  lig         0.1292
     18 C7         24.6276    4.4130   13.3305 C.2     1  lig         0.9321
     19 C8         23.4033    5.8838   14.9249 C.3     1  lig        -0.0452
     20 C9         23.3269    5.1370   13.5928 C.3     1  lig        -0.0740
     21 N1         22.1986    4.2096   13.6672 N.4     1  lig        -0.8252
     22 O1         24.6410    3.2376   13.6892 O.co2   1  lig        -0.7573
     23 O2         25.6408    4.9660   12.8143 O.co2   1  lig        -0.7573
     24 O3         28.0611    8.7709   15.7427 O.3     1  lig        -0.4913
@<TRIPOS>BOND
     1     1    12    1
     2     2    13    1
     3     3    14    1
     4     4    15    1
     5     5    19    1
     6     6    19    1
     7     7    20    1
     8     8    21    1
     9     9    21    1
    10    10    21    1
    11    11    24    1
    12    12    14   ar
    13    12    16   ar
    14    13    15   ar
    15    13    16   ar
    16    14    17   ar
    17    15    17   ar
    18    16    19    1
    19    17    24    1
    20    18    20    1
    21    18    22    1
    22    18    23    1
    23    19    20    1
    24    20    21    1
@<TRIPOS>SUBSTRUCTURE
     1 lig         1 TEMP              0 ****  ****    0 ROOT


########## Name:		ligand
########## HA_RMSDs:		12.7457
########## HA_RMSDh:		12.7053
########## HA_RMSDm:		10.4067
########## Cluster Size:	1
##########    Grid Score:          -19.226038
##########      Grid_vdw:          -16.150547
##########       Grid_es:           -3.075491
##########    Int_energy:            1.911245

@<TRIPOS>MOLECULE
ligand
 24 24 1 0 0
SMALL
No Charge or Current Charge


@<TRIPOS>ATOM
      1 H1         12.7749   11.5918   24.0594 H       1  lig         0.1340
      2 H2          8.9602    9.6799   23.9677 H       1  lig         0.1340
      3 H3         13.0314   11.1136   21.6815 H       1  lig         0.1475
      4 H4          9.2346    9.1497   21.5776 H       1  lig         0.1475
      5 H5         10.1464   10.1192   26.0963 H       1  lig         0.0877
      6 H6         11.6590   10.9674   26.1540 H       1  lig         0.0877
      7 H7          9.9372   12.9169   25.0994 H       1  lig         0.0966
      8 H8         11.6307   13.1474   26.8503 H       1  lig         0.4431
      9 H9         10.2000   13.7775   27.4060 H       1  lig         0.4431
     10 H10        10.6882   12.2666   27.9094 H       1  lig         0.4431
     11 H11        11.8376   10.7009   19.8745 H       1  lig         0.4214
     12 C1         11.9951   11.0509   23.5294 C.ar    1  lig        -0.0999
     13 C2          9.8679    9.9869   23.4535 C.ar    1  lig        -0.0999
     14 C3         12.1339   10.7862   22.1947 C.ar    1  lig        -0.1787
     15 C4         10.0153    9.6790   22.1145 C.ar    1  lig        -0.1787
     16 C5         10.8625   10.6460   24.1668 C.ar    1  lig        -0.1394
     17 C6         11.1893   10.0863   21.4918 C.ar    1  lig         0.1292
     18 C7          8.5098   11.9544   26.3173 C.2     1  lig         0.9321
     19 C8         10.6894   10.9560   25.6415 C.3     1  lig        -0.0452
     20 C9          9.9491   12.2539   25.9658 C.3     1  lig        -0.0740
     21 N1         10.6515   12.9016   27.0730 N.4     1  lig        -0.8252
     22 O1          7.8082   11.6225   25.3643 O.co2   1  lig        -0.7573
     23 O2          8.0411   12.0632   27.4866 O.co2   1  lig        -0.7573
     24 O3         11.3809    9.8925   20.2480 O.3     1  lig        -0.4913
@<TRIPOS>BOND
     1     1    12    1
     2     2    13    1
     3     3    14    1
     4     4    15    1
     5     5    19    1
     6     6    19    1
     7     7    20    1
     8     8    21    1
     9     9    21    1
    10    10    21    1
    11    11    24    1
    12    12    14   ar
    13    12    16   ar
    14    13    15   ar
    15    13    16   ar
    16    14    17   ar
    17    15    17   ar
    18    16    19    1
    19    17    24    1
    20    18    20    1
    21    18    22    1
    22    18    23    1
    23    19    20    1
    24    20    21    1
@<TRIPOS>SUBSTRUCTURE
     1 lig         1 TEMP              0 ****  ****    0 ROOT


########## Name:		ligand
########## HA_RMSDs:		12.9039
########## HA_RMSDh:		12.9021
########## HA_RMSDm:		11.4864
########## Cluster Size:	2
##########    Grid Score:          -19.209475
##########      Grid_vdw:          -19.945183
##########       Grid_es:            0.735708
##########    Int_energy:            2.029497

@<TRIPOS>MOLECULE
ligand
 24 24 1 0 0
SMALL
No Charge or Current Charge


@<TRIPOS>ATOM
      1 H1          7.6232    9.3108   23.8540 H       1  lig         0.1340
      2 H2         11.4211    9.1353   21.9147 H       1  lig         0.1340
      3 H3          8.1037   11.6110   24.5075 H       1  lig         0.1475
      4 H4         11.9338   11.4412   22.6141 H       1  lig         0.1475
      5 H5         10.0146    7.3165   21.7837 H       1  lig         0.0877
      6 H6          9.2439    6.9672   23.2985 H       1  lig         0.0877
      7 H7          7.0820    8.0308   22.1757 H       1  lig         0.0966
      8 H8          7.4181    5.6832   22.7782 H       1  lig         0.4431
      9 H9          6.6653    5.7523   21.3012 H       1  lig         0.4431
     10 H10         8.2970    5.4275   21.3824 H       1  lig         0.4431
     11 H11        11.0768   13.1838   23.6126 H       1  lig         0.4214
     12 C1          8.5734    9.7632   23.5815 C.ar    1  lig        -0.0999
     13 C2         10.6921    9.6901   22.5005 C.ar    1  lig        -0.0999
     14 C3          8.8432   11.0547   23.9420 C.ar    1  lig        -0.1787
     15 C4         10.9917   10.9805   22.8937 C.ar    1  lig        -0.1787
     16 C5          9.5009    9.0723   22.8637 C.ar    1  lig        -0.1394
     17 C6         10.0361   11.6574   23.6424 C.ar    1  lig         0.1292
     18 C7          7.9881    7.8891   20.2769 C.2     1  lig         0.9321
     19 C8          9.2006    7.6473   22.4392 C.3     1  lig        -0.0452
     20 C9          7.8712    7.4356   21.7140 C.3     1  lig        -0.0740
     21 N1          7.5359    6.0151   21.8061 N.4     1  lig        -0.8252
     22 O1          7.0847    8.6319   19.8990 O.co2   1  lig        -0.7573
     23 O2          8.9162    7.5178   19.5025 O.co2   1  lig        -0.7573
     24 O3         10.2084   12.8680   23.9973 O.3     1  lig        -0.4913
@<TRIPOS>BOND
     1     1    12    1
     2     2    13    1
     3     3    14    1
     4     4    15    1
     5     5    19    1
     6     6    19    1
     7     7    20    1
     8     8    21    1
     9     9    21    1
    10    10    21    1
    11    11    24    1
    12    12    14   ar
    13    12    16   ar
    14    13    15   ar
    15    13    16   ar
    16    14    17   ar
    17    15    17   ar
    18    16    19    1
    19    17    24    1
    20    18    20    1
    21    18    22    1
    22    18    23    1
    23    19    20    1
    24    20    21    1
@<TRIPOS>SUBSTRUCTURE
     1 lig         1 TEMP              0 ****  ****    0 ROOT


########## Name:		ligand
########## HA_RMSDs:		12.7276
########## HA_RMSDh:		12.6981
########## HA_RMSDm:		10.5255
########## Cluster Size:	1
##########    Grid Score:          -19.185459
##########      Grid_vdw:          -16.374424
##########       Grid_es:           -2.811036
##########    Int_energy:            2.315407

@<TRIPOS>MOLECULE
ligand
 24 24 1 0 0
SMALL
No Charge or Current Charge


@<TRIPOS>ATOM
      1 H1         11.1366    7.1064   22.7904 H       1  lig         0.1340
      2 H2          9.4975    9.9596   20.0723 H       1  lig         0.1340
      3 H3          8.9859    5.9565   22.8238 H       1  lig         0.1475
      4 H4          7.3082    8.8319   20.1402 H       1  lig         0.1475
      5 H5         12.5684    8.5614   21.4608 H       1  lig         0.0877
      6 H6         11.9394    9.8151   20.4394 H       1  lig         0.0877
      7 H7         11.2340   10.3038   23.2654 H       1  lig         0.0966
      8 H8         11.1568   11.9254   21.4348 H       1  lig         0.4431
      9 H9         12.2511   12.4501   22.5663 H       1  lig         0.4431
     10 H10        12.7924   11.7318   21.1643 H       1  lig         0.4431
     11 H11         6.9976    6.0101   22.3353 H       1  lig         0.4214
     12 C1         10.3048    7.4983   22.2106 C.ar    1  lig        -0.0999
     13 C2          9.3723    9.0733   20.6899 C.ar    1  lig        -0.0999
     14 C3          9.0993    6.8524   22.2232 C.ar    1  lig        -0.1787
     15 C4          8.1387    8.4518   20.7266 C.ar    1  lig        -0.1787
     16 C5         10.4447    8.6169   21.4477 C.ar    1  lig        -0.1394
     17 C6          8.0167    7.3231   21.5284 C.ar    1  lig         0.1292
     18 C7         13.3268   10.0477   23.2273 C.2     1  lig         0.9321
     19 C8         11.7848    9.3264   21.4090 C.3     1  lig        -0.0452
     20 C9         12.0271   10.3511   22.5177 C.3     1  lig        -0.0740
     21 N1         12.0455   11.6771   21.9012 N.4     1  lig        -0.8252
     22 O1         14.2869    9.8655   22.4819 O.co2   1  lig        -0.7573
     23 O2         13.4288    9.9531   24.4841 O.co2   1  lig        -0.7573
     24 O3          6.9316    6.6585   21.5757 O.3     1  lig        -0.4913
@<TRIPOS>BOND
     1     1    12    1
     2     2    13    1
     3     3    14    1
     4     4    15    1
     5     5    19    1
     6     6    19    1
     7     7    20    1
     8     8    21    1
     9     9    21    1
    10    10    21    1
    11    11    24    1
    12    12    14   ar
    13    12    16   ar
    14    13    15   ar
    15    13    16   ar
    16    14    17   ar
    17    15    17   ar
    18    16    19    1
    19    17    24    1
    20    18    20    1
    21    18    22    1
    22    18    23    1
    23    19    20    1
    24    20    21    1
@<TRIPOS>SUBSTRUCTURE
     1 lig         1 TEMP              0 ****  ****    0 ROOT


########## Name:		ligand
########## HA_RMSDs:		13.0765
########## HA_RMSDh:		13.0066
########## HA_RMSDm:		11.0218
########## Cluster Size:	1
##########    Grid Score:          -19.185003
##########      Grid_vdw:          -18.560436
##########       Grid_es:           -0.624567
##########    Int_energy:            2.624708

@<TRIPOS>MOLECULE
ligand
 24 24 1 0 0
SMALL
No Charge or Current Charge


@<TRIPOS>ATOM
      1 H1         11.2752   10.6611   21.9614 H       1  lig         0.1340
      2 H2          8.2254   11.5519   24.8110 H       1  lig         0.1340
      3 H3          9.8969    8.8378   21.1101 H       1  lig         0.1475
      4 H4          6.8499    9.6807   23.9892 H       1  lig         0.1475
      5 H5         11.4160   12.6141   23.1957 H       1  lig         0.0877
      6 H6         10.0847   13.2562   24.1045 H       1  lig         0.0877
      7 H7         12.4773   12.4385   25.2040 H       1  lig         0.0966
      8 H8         11.9110   10.1017   24.7503 H       1  lig         0.4431
      9 H9         11.8963   10.3451   26.3915 H       1  lig         0.4431
     10 H10        10.4583   10.2743   25.5538 H       1  lig         0.4431
     11 H11         6.8407    8.0204   22.5593 H       1  lig         0.4214
     12 C1         10.3111   10.4531   22.4184 C.ar    1  lig        -0.0999
     13 C2          8.5944   10.9366   23.9938 C.ar    1  lig        -0.0999
     14 C3          9.5338    9.4348   21.9395 C.ar    1  lig        -0.1787
     15 C4          7.8185    9.8853   23.5444 C.ar    1  lig        -0.1787
     16 C5          9.8467   11.2054   23.4535 C.ar    1  lig        -0.1394
     17 C6          8.3240    9.1205   22.4997 C.ar    1  lig         0.1292
     18 C7         10.7977   12.8266   26.4185 C.2     1  lig         0.9321
     19 C8         10.6916   12.3518   23.9757 C.3     1  lig        -0.0452
     20 C9         11.4489   12.0813   25.2761 C.3     1  lig        -0.0740
     21 N1         11.4433   10.6363   25.5015 N.4     1  lig        -0.8252
     22 O1         11.3868   13.8478   26.7659 O.co2   1  lig        -0.7573
     23 O2          9.7493   12.4282   27.0026 O.co2   1  lig        -0.7573
     24 O3          7.6495    8.1689   21.9888 O.3     1  lig        -0.4913
@<TRIPOS>BOND
     1     1    12    1
     2     2    13    1
     3     3    14    1
     4     4    15    1
     5     5    19    1
     6     6    19    1
     7     7    20    1
     8     8    21    1
     9     9    21    1
    10    10    21    1
    11    11    24    1
    12    12    14   ar
    13    12    16   ar
    14    13    15   ar
    15    13    16   ar
    16    14    17   ar
    17    15    17   ar
    18    16    19    1
    19    17    24    1
    20    18    20    1
    21    18    22    1
    22    18    23    1
    23    19    20    1
    24    20    21    1
@<TRIPOS>SUBSTRUCTURE
     1 lig         1 TEMP              0 ****  ****    0 ROOT


########## Name:		ligand
########## HA_RMSDs:		15.0652
########## HA_RMSDh:		15.0035
########## HA_RMSDm:		12.7483
########## Cluster Size:	1
##########    Grid Score:          -19.184856
##########      Grid_vdw:          -12.036552
##########       Grid_es:           -7.148304
##########    Int_energy:            3.355309

@<TRIPOS>MOLECULE
ligand
 24 24 1 0 0
SMALL
No Charge or Current Charge


@<TRIPOS>ATOM
      1 H1          8.1231   11.0145   25.8285 H       1  lig         0.1340
      2 H2          9.2624   11.8645   29.8528 H       1  lig         0.1340
      3 H3          9.9692   12.4055   25.0503 H       1  lig         0.1475
      4 H4         11.0982   13.3109   29.0739 H       1  lig         0.1475
      5 H5          6.9038   11.0386   29.1717 H       1  lig         0.0877
      6 H6          6.6747   10.3554   27.5933 H       1  lig         0.0877
      7 H7          6.9786    8.4410   28.9187 H       1  lig         0.0966
      8 H8          7.6160    9.6920   30.9226 H       1  lig         0.4431
      9 H9          8.6729    8.4285   30.7240 H       1  lig         0.4431
     10 H10         9.1368    9.9691   30.2932 H       1  lig         0.4431
     11 H11        11.4921   13.6533   25.5115 H       1  lig         0.4214
     12 C1          8.7631   11.5167   26.5495 C.ar    1  lig        -0.0999
     13 C2          9.4206   11.9981   28.7853 C.ar    1  lig        -0.0999
     14 C3          9.8024   12.2929   26.1159 C.ar    1  lig        -0.1787
     15 C4         10.4488   12.8167   28.3583 C.ar    1  lig        -0.1787
     16 C5          8.5637   11.3710   27.8881 C.ar    1  lig        -0.1394
     17 C6         10.6190   12.9643   26.9868 C.ar    1  lig         0.1292
     18 C7          8.8850    8.5049   28.0195 C.2     1  lig         0.9321
     19 C8          7.4280   10.4930   28.3784 C.3     1  lig        -0.0452
     20 C9          7.8330    9.1194   28.9142 C.3     1  lig        -0.0740
     21 N1          8.3251    9.3021   30.2791 N.4     1  lig        -0.8252
     22 O1         10.0381    8.6246   28.4276 O.co2   1  lig        -0.7573
     23 O2          8.6204    7.9385   26.9204 O.co2   1  lig        -0.7573
     24 O3         11.5759   13.6551   26.5088 O.3     1  lig        -0.4913
@<TRIPOS>BOND
     1     1    12    1
     2     2    13    1
     3     3    14    1
     4     4    15    1
     5     5    19    1
     6     6    19    1
     7     7    20    1
     8     8    21    1
     9     9    21    1
    10    10    21    1
    11    11    24    1
    12    12    14   ar
    13    12    16   ar
    14    13    15   ar
    15    13    16   ar
    16    14    17   ar
    17    15    17   ar
    18    16    19    1
    19    17    24    1
    20    18    20    1
    21    18    22    1
    22    18    23    1
    23    19    20    1
    24    20    21    1
@<TRIPOS>SUBSTRUCTURE
     1 lig         1 TEMP              0 ****  ****    0 ROOT


########## Name:		ligand
########## HA_RMSDs:		12.4382
########## HA_RMSDh:		12.3703
########## HA_RMSDm:		10.5996
########## Cluster Size:	2
##########    Grid Score:          -19.183603
##########      Grid_vdw:          -18.455561
##########       Grid_es:           -0.728042
##########    Int_energy:            1.237383

@<TRIPOS>MOLECULE
ligand
 24 24 1 0 0
SMALL
No Charge or Current Charge


@<TRIPOS>ATOM
      1 H1         12.1094   10.9129   21.6025 H       1  lig         0.1340
      2 H2          8.3527    9.9579   23.3886 H       1  lig         0.1340
      3 H3         11.7072    9.1913   19.9222 H       1  lig         0.1475
      4 H4          7.9628    8.1838   21.7244 H       1  lig         0.1475
      5 H5         11.1428   12.3736   23.1946 H       1  lig         0.0877
      6 H6          9.5699   12.1331   23.8865 H       1  lig         0.0877
      7 H7         11.7837   10.2757   24.7862 H       1  lig         0.0966
      8 H8          9.4709   10.0308   25.5464 H       1  lig         0.4431
      9 H9         10.4057   10.5135   26.8294 H       1  lig         0.4431
     10 H10         9.4426   11.6234   26.0453 H       1  lig         0.4431
     11 H11         8.7321    7.4398   19.7825 H       1  lig         0.4214
     12 C1         11.2004   10.3183   21.6443 C.ar    1  lig        -0.0999
     13 C2          9.0990    9.7742   22.6193 C.ar    1  lig        -0.0999
     14 C3         10.9698    9.3559   20.7002 C.ar    1  lig        -0.1787
     15 C4          8.8742    8.7725   21.6944 C.ar    1  lig        -0.1787
     16 C5         10.2674   10.5273   22.6131 C.ar    1  lig        -0.1394
     17 C6          9.8511    8.5660   20.7275 C.ar    1  lig         0.1292
     18 C7         12.0335   12.2398   25.5120 C.2     1  lig         0.9321
     19 C8         10.5037   11.6085   23.6505 C.3     1  lig        -0.0452
     20 C9         11.1493   11.1466   24.9573 C.3     1  lig        -0.0740
     21 N1         10.0741   10.7990   25.8857 N.4     1  lig        -0.8252
     22 O1         11.4354   13.2561   25.8582 O.co2   1  lig        -0.7573
     23 O2         13.2920   12.1454   25.5902 O.co2   1  lig        -0.7573
     24 O3          9.6977    7.7018   19.8050 O.3     1  lig        -0.4913
@<TRIPOS>BOND
     1     1    12    1
     2     2    13    1
     3     3    14    1
     4     4    15    1
     5     5    19    1
     6     6    19    1
     7     7    20    1
     8     8    21    1
     9     9    21    1
    10    10    21    1
    11    11    24    1
    12    12    14   ar
    13    12    16   ar
    14    13    15   ar
    15    13    16   ar
    16    14    17   ar
    17    15    17   ar
    18    16    19    1
    19    17    24    1
    20    18    20    1
    21    18    22    1
    22    18    23    1
    23    19    20    1
    24    20    21    1
@<TRIPOS>SUBSTRUCTURE
     1 lig         1 TEMP              0 ****  ****    0 ROOT


########## Name:		ligand
########## HA_RMSDs:		13.5836
########## HA_RMSDh:		13.5614
########## HA_RMSDm:		11.4626
########## Cluster Size:	1
##########    Grid Score:          -19.163208
##########      Grid_vdw:          -18.375080
##########       Grid_es:           -0.788128
##########    Int_energy:            2.198708

@<TRIPOS>MOLECULE
ligand
 24 24 1 0 0
SMALL
No Charge or Current Charge


@<TRIPOS>ATOM
      1 H1         10.3855    9.4031   20.7162 H       1  lig         0.1340
      2 H2          7.2841    9.4332   23.6481 H       1  lig         0.1340
      3 H3         11.5484   11.1342   21.9810 H       1  lig         0.1475
      4 H4          8.4287   11.2169   24.9041 H       1  lig         0.1475
      5 H5          7.2281    8.7122   20.7441 H       1  lig         0.0877
      6 H6          8.6911    7.7980   20.5590 H       1  lig         0.0877
      7 H7          6.5672    7.4649   22.7181 H       1  lig         0.0966
      8 H8          8.7901    7.3889   23.7378 H       1  lig         0.4431
      9 H9          8.1763    5.8484   23.6813 H       1  lig         0.4431
     10 H10         9.3166    6.3249   22.5646 H       1  lig         0.4431
     11 H11        11.5774   12.3614   23.5837 H       1  lig         0.4214
     12 C1          9.9431    9.7960   21.6281 C.ar    1  lig        -0.0999
     13 C2          8.2291    9.8244   23.2787 C.ar    1  lig        -0.0999
     14 C3         10.5957   10.7628   22.3423 C.ar    1  lig        -0.1787
     15 C4          8.8601   10.8294   23.9866 C.ar    1  lig        -0.1787
     16 C5          8.7521    9.3266   22.0907 C.ar    1  lig        -0.1394
     17 C6         10.0650   11.3049   23.4827 C.ar    1  lig         0.1292
     18 C7          6.9573    5.9915   21.2607 C.2     1  lig         0.9321
     19 C8          8.0326    8.2375   21.3179 C.3     1  lig        -0.0452
     20 C9          7.4342    7.1096   22.1591 C.3     1  lig        -0.0740
     21 N1          8.4667    6.6523   23.0884 N.4     1  lig        -0.8252
     22 O1          5.8172    6.1354   20.8249 O.co2   1  lig        -0.7573
     23 O2          7.6503    4.9677   20.9950 O.co2   1  lig        -0.7573
     24 O3         10.7388   12.1900   24.1024 O.3     1  lig        -0.4913
@<TRIPOS>BOND
     1     1    12    1
     2     2    13    1
     3     3    14    1
     4     4    15    1
     5     5    19    1
     6     6    19    1
     7     7    20    1
     8     8    21    1
     9     9    21    1
    10    10    21    1
    11    11    24    1
    12    12    14   ar
    13    12    16   ar
    14    13    15   ar
    15    13    16   ar
    16    14    17   ar
    17    15    17   ar
    18    16    19    1
    19    17    24    1
    20    18    20    1
    21    18    22    1
    22    18    23    1
    23    19    20    1
    24    20    21    1
@<TRIPOS>SUBSTRUCTURE
     1 lig         1 TEMP              0 ****  ****    0 ROOT


########## Name:		ligand
########## HA_RMSDs:		12.4904
########## HA_RMSDh:		12.4360
########## HA_RMSDm:		10.2070
########## Cluster Size:	1
##########    Grid Score:          -19.156216
##########      Grid_vdw:          -17.653429
##########       Grid_es:           -1.502786
##########    Int_energy:            3.441857

@<TRIPOS>MOLECULE
ligand
 24 24 1 0 0
SMALL
No Charge or Current Charge


@<TRIPOS>ATOM
      1 H1         11.1967    8.2012   23.7978 H       1  lig         0.1340
      2 H2         10.1404    9.3041   19.8124 H       1  lig         0.1340
      3 H3          9.9206    6.1404   23.5271 H       1  lig         0.1475
      4 H4          8.8087    7.2482   19.5497 H       1  lig         0.1475
      5 H5         11.5458   10.6753   21.0159 H       1  lig         0.0877
      6 H6         11.0299   10.8678   22.6614 H       1  lig         0.0877
      7 H7         13.0040    9.6189   23.4868 H       1  lig         0.0966
      8 H8         13.1958   12.0071   22.9904 H       1  lig         0.4431
      9 H9         14.6433   11.2730   22.6460 H       1  lig         0.4431
     10 H10        13.6022   11.6684   21.4074 H       1  lig         0.4431
     11 H11         8.3023    5.2392   22.3960 H       1  lig         0.4214
     12 C1         10.6734    8.0078   22.8648 C.ar    1  lig        -0.0999
     13 C2         10.0782    8.5991   20.6380 C.ar    1  lig        -0.0999
     14 C3          9.9616    6.8504   22.7084 C.ar    1  lig        -0.1787
     15 C4          9.3234    7.4521   20.4832 C.ar    1  lig        -0.1787
     16 C5         10.7294    8.8913   21.8309 C.ar    1  lig        -0.1394
     17 C6          9.2664    6.5757   21.5606 C.ar    1  lig         0.1292
     18 C7         13.6809    8.9604   21.6014 C.2     1  lig         0.9321
     19 C8         11.5360   10.1665   21.9869 C.3     1  lig        -0.0452
     20 C9         12.9788    9.9871   22.4602 C.3     1  lig        -0.0740
     21 N1         13.6358   11.2916   22.3876 N.4     1  lig        -0.8252
     22 O1         13.3972    9.0116   20.4066 O.co2   1  lig        -0.7573
     23 O2         14.4740    8.0907   22.0634 O.co2   1  lig        -0.7573
     24 O3          8.6398    5.4700   21.4825 O.3     1  lig        -0.4913
@<TRIPOS>BOND
     1     1    12    1
     2     2    13    1
     3     3    14    1
     4     4    15    1
     5     5    19    1
     6     6    19    1
     7     7    20    1
     8     8    21    1
     9     9    21    1
    10    10    21    1
    11    11    24    1
    12    12    14   ar
    13    12    16   ar
    14    13    15   ar
    15    13    16   ar
    16    14    17   ar
    17    15    17   ar
    18    16    19    1
    19    17    24    1
    20    18    20    1
    21    18    22    1
    22    18    23    1
    23    19    20    1
    24    20    21    1
@<TRIPOS>SUBSTRUCTURE
     1 lig         1 TEMP              0 ****  ****    0 ROOT


########## Name:		ligand
########## HA_RMSDs:		12.1833
########## HA_RMSDh:		12.1393
########## HA_RMSDm:		9.9541
########## Cluster Size:	1
##########    Grid Score:          -19.147772
##########      Grid_vdw:          -14.646953
##########       Grid_es:           -4.500819
##########    Int_energy:            4.896343

@<TRIPOS>MOLECULE
ligand
 24 24 1 0 0
SMALL
No Charge or Current Charge


@<TRIPOS>ATOM
      1 H1         10.8862   12.1096   23.0205 H       1  lig         0.1340
      2 H2          9.1606    8.2065   23.0824 H       1  lig         0.1340
      3 H3          9.4831   12.7206   24.9197 H       1  lig         0.1475
      4 H4          7.7047    8.8323   24.9686 H       1  lig         0.1475
      5 H5         10.6390    8.7578   21.3892 H       1  lig         0.0877
      6 H6         10.8212   10.4123   20.8993 H       1  lig         0.0877
      7 H7         12.7709   10.4389   22.7463 H       1  lig         0.0966
      8 H8         13.0036   10.7534   20.3310 H       1  lig         0.4431
      9 H9         14.2211    9.7574   20.8589 H       1  lig         0.4431
     10 H10        12.8985    9.1061   20.0837 H       1  lig         0.4431
     11 H11         7.0337   10.6113   26.1431 H       1  lig         0.4214
     12 C1         10.1894   11.3846   23.4335 C.ar    1  lig        -0.0999
     13 C2          9.2191    9.2125   23.4911 C.ar    1  lig        -0.0999
     14 C3          9.4053   11.7228   24.5019 C.ar    1  lig        -0.1787
     15 C4          8.3937    9.5559   24.5447 C.ar    1  lig        -0.1787
     16 C5         10.0947   10.1281   22.9188 C.ar    1  lig        -0.1394
     17 C6          8.4958   10.8509   25.0392 C.ar    1  lig         0.1292
     18 C7         12.8084    8.3314   22.6854 C.2     1  lig         0.9321
     19 C8         10.9774    9.7365   21.7489 C.3     1  lig        -0.0452
     20 C9         12.4758    9.6586   22.0432 C.3     1  lig        -0.0740
     21 N1         13.1872    9.8396   20.7784 N.4     1  lig        -0.8252
     22 O1         11.8466    7.7448   23.1769 O.co2   1  lig        -0.7573
     23 O2         13.9811    7.8629   22.7495 O.co2   1  lig        -0.7573
     24 O3          7.8125   11.2320   26.0438 O.3     1  lig        -0.4913
@<TRIPOS>BOND
     1     1    12    1
     2     2    13    1
     3     3    14    1
     4     4    15    1
     5     5    19    1
     6     6    19    1
     7     7    20    1
     8     8    21    1
     9     9    21    1
    10    10    21    1
    11    11    24    1
    12    12    14   ar
    13    12    16   ar
    14    13    15   ar
    15    13    16   ar
    16    14    17   ar
    17    15    17   ar
    18    16    19    1
    19    17    24    1
    20    18    20    1
    21    18    22    1
    22    18    23    1
    23    19    20    1
    24    20    21    1
@<TRIPOS>SUBSTRUCTURE
     1 lig         1 TEMP              0 ****  ****    0 ROOT


########## Name:		ligand
########## HA_RMSDs:		16.0538
########## HA_RMSDh:		16.0029
########## HA_RMSDm:		13.6038
########## Cluster Size:	2
##########    Grid Score:          -19.147194
##########      Grid_vdw:          -16.707935
##########       Grid_es:           -2.439258
##########    Int_energy:            3.120005

@<TRIPOS>MOLECULE
ligand
 24 24 1 0 0
SMALL
No Charge or Current Charge


@<TRIPOS>ATOM
      1 H1         22.2736    4.1707   11.5719 H       1  lig         0.1340
      2 H2         26.0429    5.4713   13.0939 H       1  lig         0.1340
      3 H3         21.5018    6.4841   11.6075 H       1  lig         0.1475
      4 H4         25.2531    7.8033   13.1796 H       1  lig         0.1475
      5 H5         25.3172    3.0798   13.1999 H       1  lig         0.0877
      6 H6         23.8554    2.5379   12.4383 H       1  lig         0.0877
      7 H7         26.3610    3.4802   10.9542 H       1  lig         0.0966
      8 H8         24.2717    3.9591    9.7743 H       1  lig         0.4431
      9 H9         25.0367    2.6985    9.0137 H       1  lig         0.4431
     10 H10        23.7466    2.3943   10.0224 H       1  lig         0.4431
     11 H11        21.8370    8.4021   12.2859 H       1  lig         0.4214
     12 C1         22.9339    4.9556   11.9321 C.ar    1  lig        -0.0999
     13 C2         25.0300    5.7041   12.7740 C.ar    1  lig        -0.0999
     14 C3         22.5055    6.2544   11.9480 C.ar    1  lig        -0.1787
     15 C4         24.5941    7.0140   12.8321 C.ar    1  lig        -0.1787
     16 C5         24.1977    4.6738   12.3518 C.ar    1  lig        -0.1394
     17 C6         23.2932    7.2724   12.4164 C.ar    1  lig         0.1292
     18 C7         25.9860    1.4211   11.2120 C.2     1  lig         0.9321
     19 C8         24.6895    3.2393   12.3154 C.3     1  lig        -0.0452
     20 C9         25.4852    2.8404   11.0721 C.3     1  lig        -0.0740
     21 N1         24.6050    2.9905    9.9140 N.4     1  lig        -0.8252
     22 O1         25.2683    0.6892   11.8902 O.co2   1  lig        -0.7573
     23 O2         27.0701    1.0118   10.7060 O.co2   1  lig        -0.7573
     24 O3         22.8313    8.4586   12.3850 O.3     1  lig        -0.4913
@<TRIPOS>BOND
     1     1    12    1
     2     2    13    1
     3     3    14    1
     4     4    15    1
     5     5    19    1
     6     6    19    1
     7     7    20    1
     8     8    21    1
     9     9    21    1
    10    10    21    1
    11    11    24    1
    12    12    14   ar
    13    12    16   ar
    14    13    15   ar
    15    13    16   ar
    16    14    17   ar
    17    15    17   ar
    18    16    19    1
    19    17    24    1
    20    18    20    1
    21    18    22    1
    22    18    23    1
    23    19    20    1
    24    20    21    1
@<TRIPOS>SUBSTRUCTURE
     1 lig         1 TEMP              0 ****  ****    0 ROOT


########## Name:		ligand
########## HA_RMSDs:		12.7939
########## HA_RMSDh:		12.7671
########## HA_RMSDm:		10.5138
########## Cluster Size:	1
##########    Grid Score:          -19.146677
##########      Grid_vdw:          -17.313934
##########       Grid_es:           -1.832743
##########    Int_energy:            3.071187

@<TRIPOS>MOLECULE
ligand
 24 24 1 0 0
SMALL
No Charge or Current Charge


@<TRIPOS>ATOM
      1 H1         10.4125   12.4871   25.1129 H       1  lig         0.1340
      2 H2          8.8534    9.8408   22.1495 H       1  lig         0.1340
      3 H3         12.5581   12.4632   23.9534 H       1  lig         0.1475
      4 H4         11.0319    9.7726   21.0013 H       1  lig         0.1475
      5 H5          8.0314   12.1734   24.8511 H       1  lig         0.0877
      6 H6          7.3430   11.0681   23.7043 H       1  lig         0.0877
      7 H7          6.9905   10.2334   25.9870 H       1  lig         0.0966
      8 H8          8.9512   11.3133   26.9752 H       1  lig         0.4431
      9 H9          9.0020    9.6923   27.3254 H       1  lig         0.4431
     10 H10         9.9673   10.3066   26.1149 H       1  lig         0.4431
     11 H11        12.9869   10.8180   20.9456 H       1  lig         0.4214
     12 C1         10.5365   11.8836   24.2173 C.ar    1  lig        -0.0999
     13 C2          9.6862   10.4140   22.5500 C.ar    1  lig        -0.0999
     14 C3         11.7370   11.8727   23.5621 C.ar    1  lig        -0.1787
     15 C4         10.9059   10.3640   21.9026 C.ar    1  lig        -0.1787
     16 C5          9.5064   11.1480   23.7168 C.ar    1  lig        -0.1394
     17 C6         11.9469   11.1084   22.4449 C.ar    1  lig         0.1292
     18 C7          8.0711    8.7421   24.9598 C.2     1  lig         0.9321
     19 C8          8.1644   11.1727   24.4235 C.3     1  lig        -0.0452
     20 C9          7.9781   10.1375   25.5333 C.3     1  lig        -0.0740
     21 N1          9.0097   10.3764   26.5418 N.4     1  lig        -0.8252
     22 O1          7.0035    8.2781   24.5654 O.co2   1  lig        -0.7573
     23 O2          9.1466    8.0788   24.9120 O.co2   1  lig        -0.7573
     24 O3         13.0867   11.1625   21.8800 O.3     1  lig        -0.4913
@<TRIPOS>BOND
     1     1    12    1
     2     2    13    1
     3     3    14    1
     4     4    15    1
     5     5    19    1
     6     6    19    1
     7     7    20    1
     8     8    21    1
     9     9    21    1
    10    10    21    1
    11    11    24    1
    12    12    14   ar
    13    12    16   ar
    14    13    15   ar
    15    13    16   ar
    16    14    17   ar
    17    15    17   ar
    18    16    19    1
    19    17    24    1
    20    18    20    1
    21    18    22    1
    22    18    23    1
    23    19    20    1
    24    20    21    1
@<TRIPOS>SUBSTRUCTURE
     1 lig         1 TEMP              0 ****  ****    0 ROOT


########## Name:		ligand
########## HA_RMSDs:		11.0379
########## HA_RMSDh:		10.9957
########## HA_RMSDm:		9.5195
########## Cluster Size:	1
##########    Grid Score:          -19.144047
##########      Grid_vdw:          -14.990692
##########       Grid_es:           -4.153354
##########    Int_energy:            1.428398

@<TRIPOS>MOLECULE
ligand
 24 24 1 0 0
SMALL
No Charge or Current Charge


@<TRIPOS>ATOM
      1 H1          9.6651   10.7987   24.7593 H       1  lig         0.1340
      2 H2         13.8472   11.5735   25.1144 H       1  lig         0.1340
      3 H3          9.2338   12.5962   26.3505 H       1  lig         0.1475
      4 H4         13.4216   13.3568   26.7599 H       1  lig         0.1475
      5 H5         12.7002    9.2128   24.3411 H       1  lig         0.0877
      6 H6         11.1367    9.4070   23.6142 H       1  lig         0.0877
      7 H7         13.6765   10.8755   22.7422 H       1  lig         0.0966
      8 H8         11.6310   12.1836   22.4393 H       1  lig         0.4431
      9 H9         12.1531   11.6587   20.9545 H       1  lig         0.4431
     10 H10        10.8827   10.8853   21.7043 H       1  lig         0.4431
     11 H11         9.9983   14.1984   27.3740 H       1  lig         0.4214
     12 C1         10.4969   11.3468   25.1946 C.ar    1  lig        -0.0999
     13 C2         12.8235   11.8010   25.4025 C.ar    1  lig        -0.0999
     14 C3         10.2576   12.3588   26.0830 C.ar    1  lig        -0.1787
     15 C4         12.5955   12.7985   26.3311 C.ar    1  lig        -0.1787
     16 C5         11.7832   11.0590   24.8550 C.ar    1  lig        -0.1394
     17 C6         11.2745   13.0596   26.6755 C.ar    1  lig         0.1292
     18 C7         13.0002    9.1843   21.6795 C.2     1  lig         0.9321
     19 C8         12.0570    9.9540   23.8526 C.3     1  lig        -0.0452
     20 C9         12.7190   10.3909   22.5454 C.3     1  lig        -0.0740
     21 N1         11.8167   11.3321   21.8831 N.4     1  lig        -0.8252
     22 O1         12.0100    8.7058   21.1307 O.co2   1  lig        -0.7573
     23 O2         14.1500    8.6757   21.5455 O.co2   1  lig        -0.7573
     24 O3         10.9732   13.9990   27.4806 O.3     1  lig        -0.4913
@<TRIPOS>BOND
     1     1    12    1
     2     2    13    1
     3     3    14    1
     4     4    15    1
     5     5    19    1
     6     6    19    1
     7     7    20    1
     8     8    21    1
     9     9    21    1
    10    10    21    1
    11    11    24    1
    12    12    14   ar
    13    12    16   ar
    14    13    15   ar
    15    13    16   ar
    16    14    17   ar
    17    15    17   ar
    18    16    19    1
    19    17    24    1
    20    18    20    1
    21    18    22    1
    22    18    23    1
    23    19    20    1
    24    20    21    1
@<TRIPOS>SUBSTRUCTURE
     1 lig         1 TEMP              0 ****  ****    0 ROOT


########## Name:		ligand
########## HA_RMSDs:		14.2492
########## HA_RMSDh:		14.2090
########## HA_RMSDm:		11.9430
########## Cluster Size:	1
##########    Grid Score:          -19.136452
##########      Grid_vdw:          -16.835571
##########       Grid_es:           -2.300880
##########    Int_energy:            1.987837

@<TRIPOS>MOLECULE
ligand
 24 24 1 0 0
SMALL
No Charge or Current Charge


@<TRIPOS>ATOM
      1 H1          8.3440    7.7173   24.1470 H       1  lig         0.1340
      2 H2          9.6181    9.9044   20.7106 H       1  lig         0.1340
      3 H3          7.1034    6.2112   22.6837 H       1  lig         0.1475
      4 H4          8.3269    8.4170   19.2310 H       1  lig         0.1475
      5 H5         10.2772    9.2387   24.2192 H       1  lig         0.0877
      6 H6         10.6818   10.2791   22.8909 H       1  lig         0.0877
      7 H7          7.9962   10.9711   23.7230 H       1  lig         0.0966
      8 H8          9.6750   12.4084   22.6729 H       1  lig         0.4431
      9 H9          9.2260   13.0829   24.1208 H       1  lig         0.4431
     10 H10        10.6690   12.2590   24.0054 H       1  lig         0.4431
     11 H11         7.2291    5.4672   20.4709 H       1  lig         0.4214
     12 C1          8.3435    7.8854   23.0731 C.ar    1  lig        -0.0999
     13 C2          9.0476    9.0856   21.1427 C.ar    1  lig        -0.0999
     14 C3          7.6531    7.0392   22.2497 C.ar    1  lig        -0.1787
     15 C4          8.3212    8.2609   20.3051 C.ar    1  lig        -0.1787
     16 C5          9.0395    8.9176   22.5226 C.ar    1  lig        -0.1394
     17 C6          7.6035    7.2264   20.8937 C.ar    1  lig         0.1292
     18 C7          8.9964   10.8008   25.5717 C.2     1  lig         0.9321
     19 C8          9.8274    9.8472   23.4259 C.3     1  lig        -0.0452
     20 C9          9.0301   10.9811   24.0713 C.3     1  lig        -0.0740
     21 N1          9.6659   12.2426   23.6934 N.4     1  lig        -0.8252
     22 O1         10.1017   10.7633   26.1080 O.co2   1  lig        -0.7573
     23 O2          7.9274   10.6652   26.2332 O.co2   1  lig        -0.7573
     24 O3          6.9532    6.3875   20.1904 O.3     1  lig        -0.4913
@<TRIPOS>BOND
     1     1    12    1
     2     2    13    1
     3     3    14    1
     4     4    15    1
     5     5    19    1
     6     6    19    1
     7     7    20    1
     8     8    21    1
     9     9    21    1
    10    10    21    1
    11    11    24    1
    12    12    14   ar
    13    12    16   ar
    14    13    15   ar
    15    13    16   ar
    16    14    17   ar
    17    15    17   ar
    18    16    19    1
    19    17    24    1
    20    18    20    1
    21    18    22    1
    22    18    23    1
    23    19    20    1
    24    20    21    1
@<TRIPOS>SUBSTRUCTURE
     1 lig         1 TEMP              0 ****  ****    0 ROOT


########## Name:		ligand
########## HA_RMSDs:		13.7509
########## HA_RMSDh:		13.6915
########## HA_RMSDm:		11.6485
########## Cluster Size:	1
##########    Grid Score:          -19.107908
##########      Grid_vdw:          -15.188444
##########       Grid_es:           -3.919464
##########    Int_energy:            3.077074

@<TRIPOS>MOLECULE
ligand
 24 24 1 0 0
SMALL
No Charge or Current Charge


@<TRIPOS>ATOM
      1 H1          7.1296    9.1510   23.4951 H       1  lig         0.1340
      2 H2         10.7806   10.8799   22.1181 H       1  lig         0.1340
      3 H3          6.9771    7.8992   21.4073 H       1  lig         0.1475
      4 H4         10.6070    9.6568   19.9866 H       1  lig         0.1475
      5 H5          9.5651   11.8280   24.0168 H       1  lig         0.0877
      6 H6          8.0693   11.1678   24.5974 H       1  lig         0.0877
      7 H7          9.9238   10.8294   26.2207 H       1  lig         0.0966
      8 H8         11.7018   10.6062   24.5546 H       1  lig         0.4431
      9 H9         11.7114    9.2626   25.5280 H       1  lig         0.4431
     10 H10        11.0395    9.1756   24.0064 H       1  lig         0.4431
     11 H11         9.0024    8.5233   18.7457 H       1  lig         0.4214
     12 C1          7.8943    9.2757   22.7326 C.ar    1  lig        -0.0999
     13 C2          9.9319   10.2217   21.9478 C.ar    1  lig        -0.0999
     14 C3          7.8142    8.5709   21.5633 C.ar    1  lig        -0.1787
     15 C4          9.8400    9.5452   20.7465 C.ar    1  lig        -0.1787
     16 C5          8.9519   10.1103   22.9274 C.ar    1  lig        -0.1394
     17 C6          8.7406    8.7145   20.5646 C.ar    1  lig         0.1292
     18 C7          9.0302    8.9614   25.8215 C.2     1  lig         0.9321
     19 C8          9.0615   10.8781   24.2310 C.3     1  lig        -0.0452
     20 C9          9.8121   10.1695   25.3590 C.3     1  lig        -0.0740
     21 N1         11.1310    9.7961   24.8494 N.4     1  lig        -0.8252
     22 O1          8.1337    9.2085   26.6251 O.co2   1  lig        -0.7573
     23 O2          9.2858    7.7811   25.4470 O.co2   1  lig        -0.7573
     24 O3          8.6081    8.0124   19.5107 O.3     1  lig        -0.4913
@<TRIPOS>BOND
     1     1    12    1
     2     2    13    1
     3     3    14    1
     4     4    15    1
     5     5    19    1
     6     6    19    1
     7     7    20    1
     8     8    21    1
     9     9    21    1
    10    10    21    1
    11    11    24    1
    12    12    14   ar
    13    12    16   ar
    14    13    15   ar
    15    13    16   ar
    16    14    17   ar
    17    15    17   ar
    18    16    19    1
    19    17    24    1
    20    18    20    1
    21    18    22    1
    22    18    23    1
    23    19    20    1
    24    20    21    1
@<TRIPOS>SUBSTRUCTURE
     1 lig         1 TEMP              0 ****  ****    0 ROOT


########## Name:		ligand
########## HA_RMSDs:		11.7688
########## HA_RMSDh:		11.7120
########## HA_RMSDm:		9.7549
########## Cluster Size:	3
##########    Grid Score:          -19.104424
##########      Grid_vdw:          -18.276287
##########       Grid_es:           -0.828136
##########    Int_energy:            1.195930

@<TRIPOS>MOLECULE
ligand
 24 24 1 0 0
SMALL
No Charge or Current Charge


@<TRIPOS>ATOM
      1 H1          9.0783   10.4175   23.3495 H       1  lig         0.1340
      2 H2         12.2959    9.7601   20.6236 H       1  lig         0.1340
      3 H3          7.6655    8.9850   21.9708 H       1  lig         0.1475
      4 H4         10.8602    8.3526   19.1999 H       1  lig         0.1475
      5 H5         11.9579   11.9368   22.3208 H       1  lig         0.0877
      6 H6         11.0889   11.5013   23.7581 H       1  lig         0.0877
      7 H7         13.3225    9.6932   22.7577 H       1  lig         0.0966
      8 H8         11.8280    8.9563   24.5494 H       1  lig         0.4431
      9 H9         13.3318    9.2380   25.1914 H       1  lig         0.4431
     10 H10        12.1200   10.3614   25.4016 H       1  lig         0.4431
     11 H11         8.6493    7.8622   18.8874 H       1  lig         0.4214
     12 C1          9.4790    9.9767   22.4402 C.ar    1  lig        -0.0999
     13 C2         11.2610    9.5904   20.9112 C.ar    1  lig        -0.0999
     14 C3          8.6906    9.1686   21.6681 C.ar    1  lig        -0.1787
     15 C4         10.4619    8.8049   20.1026 C.ar    1  lig        -0.1787
     16 C5         10.7676   10.1964   22.0608 C.ar    1  lig        -0.1394
     17 C6          9.1446    8.6120   20.5018 C.ar    1  lig         0.1292
     18 C7         13.9804   11.4386   23.7414 C.2     1  lig         0.9321
     19 C8         11.6564   11.0721   22.9235 C.3     1  lig        -0.0452
     20 C9         12.9128   10.4011   23.4797 C.3     1  lig        -0.0740
     21 N1         12.5349    9.6949   24.7032 N.4     1  lig        -0.8252
     22 O1         14.7135   11.6723   22.7830 O.co2   1  lig        -0.7573
     23 O2         14.1411   12.0060   24.8599 O.co2   1  lig        -0.7573
     24 O3          8.3571    7.8574   19.8447 O.3     1  lig        -0.4913
@<TRIPOS>BOND
     1     1    12    1
     2     2    13    1
     3     3    14    1
     4     4    15    1
     5     5    19    1
     6     6    19    1
     7     7    20    1
     8     8    21    1
     9     9    21    1
    10    10    21    1
    11    11    24    1
    12    12    14   ar
    13    12    16   ar
    14    13    15   ar
    15    13    16   ar
    16    14    17   ar
    17    15    17   ar
    18    16    19    1
    19    17    24    1
    20    18    20    1
    21    18    22    1
    22    18    23    1
    23    19    20    1
    24    20    21    1
@<TRIPOS>SUBSTRUCTURE
     1 lig         1 TEMP              0 ****  ****    0 ROOT


########## Name:		ligand
########## HA_RMSDs:		10.0083
########## HA_RMSDh:		9.9405
########## HA_RMSDm:		8.7158
########## Cluster Size:	1
##########    Grid Score:          -19.103474
##########      Grid_vdw:          -16.011169
##########       Grid_es:           -3.092305
##########    Int_energy:            1.187230

@<TRIPOS>MOLECULE
ligand
 24 24 1 0 0
SMALL
No Charge or Current Charge


@<TRIPOS>ATOM
      1 H1         13.4379   12.2712   25.2454 H       1  lig         0.1340
      2 H2         15.5386    9.9899   22.3132 H       1  lig         0.1340
      3 H3         11.3909   11.9825   23.9511 H       1  lig         0.1475
      4 H4         13.4854    9.7367   20.9756 H       1  lig         0.1475
      5 H5         15.6054   11.6122   25.6779 H       1  lig         0.0877
      6 H6         16.4063   10.3674   24.7727 H       1  lig         0.0877
      7 H7         16.7109   12.5617   23.0719 H       1  lig         0.0966
      8 H8         18.3850   10.9236   23.7794 H       1  lig         0.4431
      9 H9         18.9985   12.4475   24.0121 H       1  lig         0.4431
     10 H10        18.4163   11.5838   25.3120 H       1  lig         0.4431
     11 H11        11.3900   10.5885   20.8098 H       1  lig         0.4214
     12 C1         13.4634   11.7194   24.3092 C.ar    1  lig        -0.0999
     13 C2         14.6130   10.4387   22.6658 C.ar    1  lig        -0.0999
     14 C3         12.3159   11.5513   23.5841 C.ar    1  lig        -0.1787
     15 C4         13.4682   10.2968   21.9052 C.ar    1  lig        -0.1787
     16 C5         14.6198   11.1684   23.8490 C.ar    1  lig        -0.1394
     17 C6         12.3050   10.8854   22.3872 C.ar    1  lig         0.1292
     18 C7         16.7296   13.6661   24.8683 C.2     1  lig         0.9321
     19 C8         15.8926   11.3295   24.6584 C.3     1  lig        -0.0452
     20 C9         16.8921   12.3581   24.1283 C.3     1  lig        -0.0740
     21 N1         18.2342   11.8035   24.3008 N.4     1  lig        -0.8252
     22 O1         15.8958   14.4283   24.3843 O.co2   1  lig        -0.7573
     23 O2         17.4117   13.9804   25.8856 O.co2   1  lig        -0.7573
     24 O3         11.1949   10.7553   21.7771 O.3     1  lig        -0.4913
@<TRIPOS>BOND
     1     1    12    1
     2     2    13    1
     3     3    14    1
     4     4    15    1
     5     5    19    1
     6     6    19    1
     7     7    20    1
     8     8    21    1
     9     9    21    1
    10    10    21    1
    11    11    24    1
    12    12    14   ar
    13    12    16   ar
    14    13    15   ar
    15    13    16   ar
    16    14    17   ar
    17    15    17   ar
    18    16    19    1
    19    17    24    1
    20    18    20    1
    21    18    22    1
    22    18    23    1
    23    19    20    1
    24    20    21    1
@<TRIPOS>SUBSTRUCTURE
     1 lig         1 TEMP              0 ****  ****    0 ROOT


########## Name:		ligand
########## HA_RMSDs:		13.1496
########## HA_RMSDh:		13.0773
########## HA_RMSDm:		10.7505
########## Cluster Size:	1
##########    Grid Score:          -19.096840
##########      Grid_vdw:          -14.970581
##########       Grid_es:           -4.126258
##########    Int_energy:            2.957202

@<TRIPOS>MOLECULE
ligand
 24 24 1 0 0
SMALL
No Charge or Current Charge


@<TRIPOS>ATOM
      1 H1         11.2716   10.9250   21.6026 H       1  lig         0.1340
      2 H2          7.8071    9.3990   23.5734 H       1  lig         0.1340
      3 H3         10.7645    9.5023   19.6876 H       1  lig         0.1475
      4 H4          7.3169    7.9226   21.6631 H       1  lig         0.1475
      5 H5         10.3402   12.0499   23.5191 H       1  lig         0.0877
      6 H6          8.9573   11.4608   24.3858 H       1  lig         0.0877
      7 H7         10.8737   11.1982   25.8321 H       1  lig         0.0966
      8 H8         12.5513   11.2574   24.0520 H       1  lig         0.4431
      9 H9         12.8269    9.9240   25.0002 H       1  lig         0.4431
     10 H10        12.0767    9.7469   23.5236 H       1  lig         0.4431
     11 H11         9.1523    8.4369   18.7211 H       1  lig         0.4214
     12 C1         10.4062   10.2677   21.6313 C.ar    1  lig        -0.0999
     13 C2          8.4660    9.4086   22.7083 C.ar    1  lig        -0.0999
     14 C3         10.1165    9.4729   20.5567 C.ar    1  lig        -0.1787
     15 C4          8.1863    8.5721   21.6447 C.ar    1  lig        -0.1787
     16 C5          9.5844   10.2341   22.7159 C.ar    1  lig        -0.1394
     17 C6          9.0517    8.6112   20.5577 C.ar    1  lig         0.1292
     18 C7         10.2466    9.2195   25.4600 C.2     1  lig         0.9321
     19 C8          9.8846   11.1296   23.9029 C.3     1  lig        -0.0452
     20 C9         10.8059   10.5349   24.9685 C.3     1  lig        -0.0740
     21 N1         12.1294   10.3684   24.3692 N.4     1  lig        -0.8252
     22 O1          9.3918    9.3221   26.3372 O.co2   1  lig        -0.7573
     23 O2         10.6386    8.0942   25.0370 O.co2   1  lig        -0.7573
     24 O3          8.8360    7.9145   19.5140 O.3     1  lig        -0.4913
@<TRIPOS>BOND
     1     1    12    1
     2     2    13    1
     3     3    14    1
     4     4    15    1
     5     5    19    1
     6     6    19    1
     7     7    20    1
     8     8    21    1
     9     9    21    1
    10    10    21    1
    11    11    24    1
    12    12    14   ar
    13    12    16   ar
    14    13    15   ar
    15    13    16   ar
    16    14    17   ar
    17    15    17   ar
    18    16    19    1
    19    17    24    1
    20    18    20    1
    21    18    22    1
    22    18    23    1
    23    19    20    1
    24    20    21    1
@<TRIPOS>SUBSTRUCTURE
     1 lig         1 TEMP              0 ****  ****    0 ROOT


########## Name:		ligand
########## HA_RMSDs:		10.0563
########## HA_RMSDh:		10.0333
########## HA_RMSDm:		8.3125
########## Cluster Size:	1
##########    Grid Score:          -19.079306
##########      Grid_vdw:          -14.778840
##########       Grid_es:           -4.300466
##########    Int_energy:            2.861315

@<TRIPOS>MOLECULE
ligand
 24 24 1 0 0
SMALL
No Charge or Current Charge


@<TRIPOS>ATOM
      1 H1         14.4925   13.7038   27.6832 H       1  lig         0.1340
      2 H2         17.7048   16.3912   26.8619 H       1  lig         0.1340
      3 H3         13.0874   15.6145   28.2523 H       1  lig         0.1475
      4 H4         16.3064   18.3219   27.4832 H       1  lig         0.1475
      5 H5         18.1113   14.0605   26.9760 H       1  lig         0.0877
      6 H6         16.9590   12.9343   27.6197 H       1  lig         0.0877
      7 H7         17.7520   12.6813   25.1249 H       1  lig         0.0966
      8 H8         17.2326   14.9975   24.5314 H       1  lig         0.4431
      9 H9         16.2761   13.9878   23.6266 H       1  lig         0.4431
     10 H10        15.6328   14.7695   24.9493 H       1  lig         0.4431
     11 H11        13.0463   17.6343   28.7644 H       1  lig         0.4214
     12 C1         14.9038   14.7092   27.6413 C.ar    1  lig        -0.0999
     13 C2         16.6786   16.2263   27.1820 C.ar    1  lig        -0.0999
     14 C3         14.1166   15.7828   27.9546 C.ar    1  lig        -0.1787
     15 C4         15.9044   17.3151   27.5348 C.ar    1  lig        -0.1787
     16 C5         16.1921   14.9264   27.2593 C.ar    1  lig        -0.1394
     17 C6         14.5986   17.0648   27.9400 C.ar    1  lig         0.1292
     18 C7         15.7596   12.1180   25.5247 C.2     1  lig         0.9321
     19 C8         17.0657   13.7434   26.8871 C.3     1  lig        -0.0452
     20 C9         16.8457   13.1685   25.4875 C.3     1  lig        -0.0740
     21 N1         16.4938   14.2776   24.6016 N.4     1  lig        -0.8252
     22 O1         16.1283   11.0138   25.9189 O.co2   1  lig        -0.7573
     23 O2         14.5702   12.3322   25.1529 O.co2   1  lig        -0.7573
     24 O3         13.8011   18.0146   28.2283 O.3     1  lig        -0.4913
@<TRIPOS>BOND
     1     1    12    1
     2     2    13    1
     3     3    14    1
     4     4    15    1
     5     5    19    1
     6     6    19    1
     7     7    20    1
     8     8    21    1
     9     9    21    1
    10    10    21    1
    11    11    24    1
    12    12    14   ar
    13    12    16   ar
    14    13    15   ar
    15    13    16   ar
    16    14    17   ar
    17    15    17   ar
    18    16    19    1
    19    17    24    1
    20    18    20    1
    21    18    22    1
    22    18    23    1
    23    19    20    1
    24    20    21    1
@<TRIPOS>SUBSTRUCTURE
     1 lig         1 TEMP              0 ****  ****    0 ROOT


########## Name:		ligand
########## HA_RMSDs:		14.1728
########## HA_RMSDh:		14.1206
########## HA_RMSDm:		12.6438
########## Cluster Size:	2
##########    Grid Score:          -19.079168
##########      Grid_vdw:          -14.368500
##########       Grid_es:           -4.710669
##########    Int_energy:            2.517761

@<TRIPOS>MOLECULE
ligand
 24 24 1 0 0
SMALL
No Charge or Current Charge


@<TRIPOS>ATOM
      1 H1         22.1127    5.2178   13.5703 H       1  lig         0.1340
      2 H2         25.3301    7.4035   15.3273 H       1  lig         0.1340
      3 H3         22.1643    6.7422   11.6671 H       1  lig         0.1475
      4 H4         25.3545    8.9767   13.4316 H       1  lig         0.1475
      5 H5         24.3961    5.6524   16.5009 H       1  lig         0.0877
      6 H6         22.7148    5.2957   16.2629 H       1  lig         0.0877
      7 H7         24.7936    3.7707   14.6505 H       1  lig         0.0966
      8 H8         22.4093    3.5686   14.1400 H       1  lig         0.4431
      9 H9         22.9376    2.1385   14.7946 H       1  lig         0.4431
     10 H10        22.0751    3.2090   15.7352 H       1  lig         0.4431
     11 H11        23.2290    8.2046   10.6716 H       1  lig         0.4214
     12 C1         22.8232    6.0404   13.5554 C.ar    1  lig        -0.0999
     13 C2         24.6221    7.2692   14.5129 C.ar    1  lig        -0.0999
     14 C3         22.8580    6.8935   12.4869 C.ar    1  lig        -0.1787
     15 C4         24.6392    8.1607   13.4573 C.ar    1  lig        -0.1787
     16 C5         23.7023    6.2289   14.5774 C.ar    1  lig        -0.1394
     17 C6         23.7186    7.9579   12.4360 C.ar    1  lig         0.1292
     18 C7         24.6285    3.1522   16.6598 C.2     1  lig         0.9321
     19 C8         23.6869    5.2736   15.7556 C.3     1  lig        -0.0452
     20 C9         24.0403    3.8203   15.4381 C.3     1  lig        -0.0740
     21 N1         22.8175    3.1524   14.9938 N.4     1  lig        -0.8252
     22 O1         25.8302    3.3513   16.8238 O.co2   1  lig        -0.7573
     23 O2         23.9596    2.4179   17.4422 O.co2   1  lig        -0.7573
     24 O3         23.7038    8.6991   11.4008 O.3     1  lig        -0.4913
@<TRIPOS>BOND
     1     1    12    1
     2     2    13    1
     3     3    14    1
     4     4    15    1
     5     5    19    1
     6     6    19    1
     7     7    20    1
     8     8    21    1
     9     9    21    1
    10    10    21    1
    11    11    24    1
    12    12    14   ar
    13    12    16   ar
    14    13    15   ar
    15    13    16   ar
    16    14    17   ar
    17    15    17   ar
    18    16    19    1
    19    17    24    1
    20    18    20    1
    21    18    22    1
    22    18    23    1
    23    19    20    1
    24    20    21    1
@<TRIPOS>SUBSTRUCTURE
     1 lig         1 TEMP              0 ****  ****    0 ROOT


########## Name:		ligand
########## HA_RMSDs:		13.1377
########## HA_RMSDh:		13.0730
########## HA_RMSDm:		11.2525
########## Cluster Size:	1
##########    Grid Score:          -19.062246
##########      Grid_vdw:          -14.899108
##########       Grid_es:           -4.163139
##########    Int_energy:            2.469341

@<TRIPOS>MOLECULE
ligand
 24 24 1 0 0
SMALL
No Charge or Current Charge


@<TRIPOS>ATOM
      1 H1         10.6586   10.7932   21.9576 H       1  lig         0.1340
      2 H2          7.4082    8.7835   23.8581 H       1  lig         0.1340
      3 H3         10.0169    9.7568   19.8451 H       1  lig         0.1475
      4 H4          6.7848    7.6943   21.7381 H       1  lig         0.1475
      5 H5          9.8466   11.4957   24.1305 H       1  lig         0.0877
      6 H6          8.5856   10.6607   24.9809 H       1  lig         0.0877
      7 H7         10.3457    8.6753   25.1591 H       1  lig         0.0966
      8 H8          9.4945   10.0517   26.9942 H       1  lig         0.4431
      9 H9         11.1239    9.8242   27.2095 H       1  lig         0.4431
     10 H10        10.5646   11.2721   26.6051 H       1  lig         0.4431
     11 H11         8.7506    8.5445   18.8440 H       1  lig         0.4214
     12 C1          9.8123   10.1118   21.9246 C.ar    1  lig        -0.0999
     13 C2          7.9897    8.9872   22.9620 C.ar    1  lig        -0.0999
     14 C3          9.4469    9.5334   20.7403 C.ar    1  lig        -0.1787
     15 C4          7.6362    8.3662   21.7792 C.ar    1  lig        -0.1787
     16 C5          9.0879    9.8355   23.0435 C.ar    1  lig        -0.1394
     17 C6          8.4037    8.6499   20.6557 C.ar    1  lig         0.1292
     18 C7         11.8984    9.9939   24.6140 C.2     1  lig         0.9321
     19 C8          9.4713   10.4908   24.3567 C.3     1  lig        -0.0452
     20 C9         10.5210    9.7517   25.1873 C.3     1  lig        -0.0740
     21 N1         10.4173   10.2326   26.5644 N.4     1  lig        -0.8252
     22 O1         12.2375   11.1746   24.5770 O.co2   1  lig        -0.7573
     23 O2         12.6418    9.0708   24.1733 O.co2   1  lig        -0.7573
     24 O3          8.1128    8.1643   19.5151 O.3     1  lig        -0.4913
@<TRIPOS>BOND
     1     1    12    1
     2     2    13    1
     3     3    14    1
     4     4    15    1
     5     5    19    1
     6     6    19    1
     7     7    20    1
     8     8    21    1
     9     9    21    1
    10    10    21    1
    11    11    24    1
    12    12    14   ar
    13    12    16   ar
    14    13    15   ar
    15    13    16   ar
    16    14    17   ar
    17    15    17   ar
    18    16    19    1
    19    17    24    1
    20    18    20    1
    21    18    22    1
    22    18    23    1
    23    19    20    1
    24    20    21    1
@<TRIPOS>SUBSTRUCTURE
     1 lig         1 TEMP              0 ****  ****    0 ROOT


########## Name:		ligand
########## HA_RMSDs:		12.7861
########## HA_RMSDh:		12.7851
########## HA_RMSDm:		11.3780
########## Cluster Size:	1
##########    Grid Score:          -19.058134
##########      Grid_vdw:          -17.250708
##########       Grid_es:           -1.807426
##########    Int_energy:            3.439287

@<TRIPOS>MOLECULE
ligand
 24 24 1 0 0
SMALL
No Charge or Current Charge


@<TRIPOS>ATOM
      1 H1          8.4980    9.8091   24.9961 H       1  lig         0.1340
      2 H2          9.7177    9.6853   20.9080 H       1  lig         0.1340
      3 H3         10.4115   11.2400   25.4861 H       1  lig         0.1475
      4 H4         11.6801   11.0892   21.4054 H       1  lig         0.1475
      5 H5          7.1547    8.7566   23.4964 H       1  lig         0.0877
      6 H6          7.1888    9.2127   21.8227 H       1  lig         0.0877
      7 H7          7.3278    6.6481   22.5635 H       1  lig         0.0966
      8 H8          9.3487    7.0000   23.8971 H       1  lig         0.4431
      9 H9          9.7156    5.9968   22.6276 H       1  lig         0.4431
     10 H10        10.1509    7.6033   22.5636 H       1  lig         0.4431
     11 H11        11.7910   12.6620   24.4954 H       1  lig         0.4214
     12 C1          9.1905   10.0768   24.2021 C.ar    1  lig        -0.0999
     13 C2          9.8849   10.0277   21.9266 C.ar    1  lig        -0.0999
     14 C3         10.2613   10.8835   24.4729 C.ar    1  lig        -0.1787
     15 C4         10.9920   10.8091   22.1968 C.ar    1  lig        -0.1787
     16 C5          9.0012    9.6396   22.9270 C.ar    1  lig        -0.1394
     17 C6         11.1733   11.2262   23.5102 C.ar    1  lig         0.1292
     18 C7          8.1980    7.1919   20.7212 C.2     1  lig         0.9321
     19 C8          7.8032    8.7639   22.6126 C.3     1  lig        -0.0452
     20 C9          8.1191    7.3188   22.2253 C.3     1  lig        -0.0740
     21 N1          9.3824    6.9532   22.8649 N.4     1  lig        -0.8252
     22 O1          7.1397    7.4033   20.1331 O.co2   1  lig        -0.7573
     23 O2          9.2517    6.8637   20.1041 O.co2   1  lig        -0.7573
     24 O3         12.1357   11.9943   23.8343 O.3     1  lig        -0.4913
@<TRIPOS>BOND
     1     1    12    1
     2     2    13    1
     3     3    14    1
     4     4    15    1
     5     5    19    1
     6     6    19    1
     7     7    20    1
     8     8    21    1
     9     9    21    1
    10    10    21    1
    11    11    24    1
    12    12    14   ar
    13    12    16   ar
    14    13    15   ar
    15    13    16   ar
    16    14    17   ar
    17    15    17   ar
    18    16    19    1
    19    17    24    1
    20    18    20    1
    21    18    22    1
    22    18    23    1
    23    19    20    1
    24    20    21    1
@<TRIPOS>SUBSTRUCTURE
     1 lig         1 TEMP              0 ****  ****    0 ROOT


########## Name:		ligand
########## HA_RMSDs:		13.3863
########## HA_RMSDh:		13.3053
########## HA_RMSDm:		10.8825
########## Cluster Size:	1
##########    Grid Score:          -19.055706
##########      Grid_vdw:          -15.459160
##########       Grid_es:           -3.596547
##########    Int_energy:            3.902417

@<TRIPOS>MOLECULE
ligand
 24 24 1 0 0
SMALL
No Charge or Current Charge


@<TRIPOS>ATOM
      1 H1         15.4836   14.5895   29.7299 H       1  lig         0.1340
      2 H2         17.4833   18.1180   31.0590 H       1  lig         0.1340
      3 H3         17.4997   13.9476   28.5165 H       1  lig         0.1475
      4 H4         19.5059   17.5006   29.7952 H       1  lig         0.1475
      5 H5         14.7031   15.8954   31.6931 H       1  lig         0.0877
      6 H6         15.3593   17.4588   32.0614 H       1  lig         0.0877
      7 H7         13.0661   17.4959   30.9711 H       1  lig         0.0966
      8 H8         13.5120   15.6858   29.3864 H       1  lig         0.4431
      9 H9         13.0957   17.0484   28.5361 H       1  lig         0.4431
     10 H10        14.6957   16.5979   28.6430 H       1  lig         0.4431
     11 H11        20.1127   16.0671   28.0563 H       1  lig         0.4214
     12 C1         16.3552   15.2390   29.7474 C.ar    1  lig        -0.0999
     13 C2         17.4920   17.1960   30.4824 C.ar    1  lig        -0.0999
     14 C3         17.4888   14.8788   29.0723 C.ar    1  lig        -0.1787
     15 C4         18.6288   16.8618   29.7716 C.ar    1  lig        -0.1787
     16 C5         16.3499   16.4041   30.4511 C.ar    1  lig        -0.1394
     17 C6         18.6017   15.6770   29.0454 C.ar    1  lig         0.1292
     18 C7         14.3736   18.8849   30.0723 C.2     1  lig         0.9321
     19 C8         15.1051   16.8000   31.2222 C.3     1  lig        -0.0452
     20 C9         13.9958   17.4589   30.4015 C.3     1  lig        -0.0740
     21 N1         13.8024   16.6589   29.1927 N.4     1  lig        -0.8252
     22 O1         13.8612   19.7318   30.8009 O.co2   1  lig        -0.7573
     23 O2         15.1284   19.2008   29.1083 O.co2   1  lig        -0.7573
     24 O3         19.6252   15.2670   28.4084 O.3     1  lig        -0.4913
@<TRIPOS>BOND
     1     1    12    1
     2     2    13    1
     3     3    14    1
     4     4    15    1
     5     5    19    1
     6     6    19    1
     7     7    20    1
     8     8    21    1
     9     9    21    1
    10    10    21    1
    11    11    24    1
    12    12    14   ar
    13    12    16   ar
    14    13    15   ar
    15    13    16   ar
    16    14    17   ar
    17    15    17   ar
    18    16    19    1
    19    17    24    1
    20    18    20    1
    21    18    22    1
    22    18    23    1
    23    19    20    1
    24    20    21    1
@<TRIPOS>SUBSTRUCTURE
     1 lig         1 TEMP              0 ****  ****    0 ROOT


########## Name:		ligand
########## HA_RMSDs:		11.5451
########## HA_RMSDh:		11.4614
########## HA_RMSDm:		9.4697
########## Cluster Size:	1
##########    Grid Score:          -19.046001
##########      Grid_vdw:          -16.718899
##########       Grid_es:           -2.327102
##########    Int_energy:            1.477627

@<TRIPOS>MOLECULE
ligand
 24 24 1 0 0
SMALL
No Charge or Current Charge


@<TRIPOS>ATOM
      1 H1         12.9349    9.3339   20.4464 H       1  lig         0.1340
      2 H2         10.6998    9.5550   24.0756 H       1  lig         0.1340
      3 H3         10.8483    9.0209   19.2228 H       1  lig         0.1475
      4 H4          8.5932    9.1893   22.8519 H       1  lig         0.1475
      5 H5         13.0564    9.3918   24.1516 H       1  lig         0.0877
      6 H6         14.0115    8.9447   22.7738 H       1  lig         0.0877
      7 H7         13.5826   11.5446   22.0968 H       1  lig         0.0966
      8 H8         15.7209   10.4056   22.4389 H       1  lig         0.4431
      9 H9         15.7682   11.8724   23.2130 H       1  lig         0.4431
     10 H10        15.5217   10.4807   24.0944 H       1  lig         0.4431
     11 H11         8.8332    8.5435   19.3440 H       1  lig         0.4214
     12 C1         11.9918    9.2979   20.9859 C.ar    1  lig        -0.0999
     13 C2         10.7249    9.4254   22.9962 C.ar    1  lig        -0.0999
     14 C3         10.8198    9.1279   20.3017 C.ar    1  lig        -0.1787
     15 C4          9.5388    9.2142   22.3196 C.ar    1  lig        -0.1787
     16 C5         11.9497    9.4411   22.3388 C.ar    1  lig        -0.1394
     17 C6          9.6109    9.0514   20.9412 C.ar    1  lig         0.1292
     18 C7         13.2178   11.9185   24.1398 C.2     1  lig         0.9321
     19 C8         13.2424    9.6537   23.1035 C.3     1  lig        -0.0452
     20 C9         13.8234   11.0670   23.0477 C.3     1  lig        -0.0740
     21 N1         15.2746   10.9570   23.1910 N.4     1  lig        -0.8252
     22 O1         12.1211   12.4005   23.8649 O.co2   1  lig        -0.7573
     23 O2         13.7941   12.1531   25.2406 O.co2   1  lig        -0.7573
     24 O3          8.5608    8.9084   20.2353 O.3     1  lig        -0.4913
@<TRIPOS>BOND
     1     1    12    1
     2     2    13    1
     3     3    14    1
     4     4    15    1
     5     5    19    1
     6     6    19    1
     7     7    20    1
     8     8    21    1
     9     9    21    1
    10    10    21    1
    11    11    24    1
    12    12    14   ar
    13    12    16   ar
    14    13    15   ar
    15    13    16   ar
    16    14    17   ar
    17    15    17   ar
    18    16    19    1
    19    17    24    1
    20    18    20    1
    21    18    22    1
    22    18    23    1
    23    19    20    1
    24    20    21    1
@<TRIPOS>SUBSTRUCTURE
     1 lig         1 TEMP              0 ****  ****    0 ROOT


########## Name:		ligand
########## HA_RMSDs:		13.4069
########## HA_RMSDh:		13.3446
########## HA_RMSDm:		11.2990
########## Cluster Size:	1
##########    Grid Score:          -19.033340
##########      Grid_vdw:          -19.471952
##########       Grid_es:            0.438612
##########    Int_energy:            3.135143

@<TRIPOS>MOLECULE
ligand
 24 24 1 0 0
SMALL
No Charge or Current Charge


@<TRIPOS>ATOM
      1 H1          9.8358    7.2905   19.5102 H       1  lig         0.1340
      2 H2          8.6532    9.9272   22.6510 H       1  lig         0.1340
      3 H3          7.7444    6.0689   19.7972 H       1  lig         0.1475
      4 H4          6.5616    8.6679   22.9800 H       1  lig         0.1475
      5 H5         11.1543    9.0808   19.9749 H       1  lig         0.0877
      6 H6         10.4706   10.5040   20.6943 H       1  lig         0.0877
      7 H7         12.6925    9.2078   21.6553 H       1  lig         0.0966
      8 H8         11.3259    7.3018   22.3527 H       1  lig         0.4431
      9 H9         11.9007    8.0696   23.7066 H       1  lig         0.4431
     10 H10        10.3241    8.3110   23.2265 H       1  lig         0.4431
     11 H11         5.3462    7.0684   22.1028 H       1  lig         0.4214
     12 C1          9.1305    7.5987   20.2777 C.ar    1  lig        -0.0999
     13 C2          8.4476    9.0611   22.0264 C.ar    1  lig        -0.0999
     14 C3          7.9545    6.9188   20.4373 C.ar    1  lig        -0.1787
     15 C4          7.2748    8.3573   22.2231 C.ar    1  lig        -0.1787
     16 C5          9.3852    8.6705   21.0773 C.ar    1  lig        -0.1394
     17 C6          7.0476    7.2555   21.4070 C.ar    1  lig         0.1292
     18 C7         11.6813   10.6313   22.8376 C.2     1  lig         0.9321
     19 C8         10.6762    9.4450   20.8918 C.3     1  lig        -0.0452
     20 C9         11.6812    9.3474   22.0400 C.3     1  lig        -0.0740
     21 N1         11.3041    8.1999   22.8644 N.4     1  lig        -0.8252
     22 O1         12.4095   11.5135   22.3881 O.co2   1  lig        -0.7573
     23 O2         11.0172   10.7905   23.9018 O.co2   1  lig        -0.7573
     24 O3          5.9674    6.5857   21.4841 O.3     1  lig        -0.4913
@<TRIPOS>BOND
     1     1    12    1
     2     2    13    1
     3     3    14    1
     4     4    15    1
     5     5    19    1
     6     6    19    1
     7     7    20    1
     8     8    21    1
     9     9    21    1
    10    10    21    1
    11    11    24    1
    12    12    14   ar
    13    12    16   ar
    14    13    15   ar
    15    13    16   ar
    16    14    17   ar
    17    15    17   ar
    18    16    19    1
    19    17    24    1
    20    18    20    1
    21    18    22    1
    22    18    23    1
    23    19    20    1
    24    20    21    1
@<TRIPOS>SUBSTRUCTURE
     1 lig         1 TEMP              0 ****  ****    0 ROOT


########## Name:		ligand
########## HA_RMSDs:		11.9492
########## HA_RMSDh:		11.8864
########## HA_RMSDm:		9.8902
########## Cluster Size:	1
##########    Grid Score:          -19.027237
##########      Grid_vdw:          -19.137976
##########       Grid_es:            0.110739
##########    Int_energy:            2.691853

@<TRIPOS>MOLECULE
ligand
 24 24 1 0 0
SMALL
No Charge or Current Charge


@<TRIPOS>ATOM
      1 H1         13.3727   11.9968   23.9010 H       1  lig         0.1340
      2 H2          9.7036   10.6475   22.1885 H       1  lig         0.1340
      3 H3         14.5832   10.5331   22.3709 H       1  lig         0.1475
      4 H4         10.9175    9.1298   20.6746 H       1  lig         0.1475
      5 H5         11.3937   13.1095   24.4108 H       1  lig         0.0877
      6 H6          9.9055   12.8456   23.5586 H       1  lig         0.0877
      7 H7         10.0908   12.3593   26.1727 H       1  lig         0.0966
      8 H8         11.9264   10.7655   25.8950 H       1  lig         0.4431
      9 H9         10.6037    9.9576   26.4870 H       1  lig         0.4431
     10 H10        10.9927    9.8339   24.8721 H       1  lig         0.4431
     11 H11        14.4115    9.4788   20.5098 H       1  lig         0.4214
     12 C1         12.8228   11.3696   23.2038 C.ar    1  lig        -0.0999
     13 C2         10.7896   10.6087   22.2294 C.ar    1  lig        -0.0999
     14 C3         13.4992   10.5519   22.3410 C.ar    1  lig        -0.1787
     15 C4         11.4610    9.7494   21.3808 C.ar    1  lig        -0.1787
     16 C5         11.4628   11.3967   23.1559 C.ar    1  lig        -0.1394
     17 C6         12.8483    9.7263   21.4631 C.ar    1  lig         0.1292
     18 C7          8.6804   11.2452   25.0697 C.2     1  lig         0.9321
     19 C8         10.7050   12.3180   24.0928 C.3     1  lig        -0.0452
     20 C9         10.1097   11.6581   25.3370 C.3     1  lig        -0.0740
     21 N1         10.9490   10.5095   25.6757 N.4     1  lig        -0.8252
     22 O1          7.8699   12.1691   25.0793 O.co2   1  lig        -0.7573
     23 O2          8.3252   10.0463   24.8817 O.co2   1  lig        -0.7573
     24 O3         13.5463    9.0051   20.6795 O.3     1  lig        -0.4913
@<TRIPOS>BOND
     1     1    12    1
     2     2    13    1
     3     3    14    1
     4     4    15    1
     5     5    19    1
     6     6    19    1
     7     7    20    1
     8     8    21    1
     9     9    21    1
    10    10    21    1
    11    11    24    1
    12    12    14   ar
    13    12    16   ar
    14    13    15   ar
    15    13    16   ar
    16    14    17   ar
    17    15    17   ar
    18    16    19    1
    19    17    24    1
    20    18    20    1
    21    18    22    1
    22    18    23    1
    23    19    20    1
    24    20    21    1
@<TRIPOS>SUBSTRUCTURE
     1 lig         1 TEMP              0 ****  ****    0 ROOT


########## Name:		ligand
########## HA_RMSDs:		12.6859
########## HA_RMSDh:		12.6482
########## HA_RMSDm:		10.8927
########## Cluster Size:	1
##########    Grid Score:          -19.013367
##########      Grid_vdw:          -16.565325
##########       Grid_es:           -2.448042
##########    Int_energy:            3.619731

@<TRIPOS>MOLECULE
ligand
 24 24 1 0 0
SMALL
No Charge or Current Charge


@<TRIPOS>ATOM
      1 H1         10.8141    8.8408   23.9105 H       1  lig         0.1340
      2 H2         11.6098    9.4192   19.7574 H       1  lig         0.1340
      3 H3         13.2013    8.5085   24.2845 H       1  lig         0.1475
      4 H4         14.0161    9.0350   20.1201 H       1  lig         0.1475
      5 H5          9.1364    9.6789   22.5202 H       1  lig         0.0877
      6 H6          9.4170   10.1945   20.8874 H       1  lig         0.0877
      7 H7          9.4643    7.2987   20.8852 H       1  lig         0.0966
      8 H8          8.8336    8.8050   19.0631 H       1  lig         0.4431
      9 H9          7.5596    7.7911   19.3819 H       1  lig         0.4431
     10 H10         7.5279    9.3591   19.9429 H       1  lig         0.4431
     11 H11        15.5165    8.9883   21.7971 H       1  lig         0.4214
     12 C1         11.5036    8.8797   23.0710 C.ar    1  lig        -0.0999
     13 C2         11.9713    9.2061   20.7607 C.ar    1  lig        -0.0999
     14 C3         12.8434    8.6991   23.2787 C.ar    1  lig        -0.1787
     15 C4         13.3217    8.9855   20.9528 C.ar    1  lig        -0.1787
     16 C5         11.0606    9.1280   21.8081 C.ar    1  lig        -0.1394
     17 C6         13.7459    8.7147   22.2484 C.ar    1  lig         0.1292
     18 C7          7.7799    7.7091   22.0857 C.2     1  lig         0.9321
     19 C8          9.5792    9.3530   21.5718 C.3     1  lig        -0.0452
     20 C9          8.7970    8.1448   21.0559 C.3     1  lig        -0.0740
     21 N1          8.1596    8.5320   19.7980 N.4     1  lig        -0.8252
     22 O1          8.1889    7.7163   23.2446 O.co2   1  lig        -0.7573
     23 O2          6.6088    7.3331   21.7925 O.co2   1  lig        -0.7573
     24 O3         14.9792    8.5549   22.5218 O.3     1  lig        -0.4913
@<TRIPOS>BOND
     1     1    12    1
     2     2    13    1
     3     3    14    1
     4     4    15    1
     5     5    19    1
     6     6    19    1
     7     7    20    1
     8     8    21    1
     9     9    21    1
    10    10    21    1
    11    11    24    1
    12    12    14   ar
    13    12    16   ar
    14    13    15   ar
    15    13    16   ar
    16    14    17   ar
    17    15    17   ar
    18    16    19    1
    19    17    24    1
    20    18    20    1
    21    18    22    1
    22    18    23    1
    23    19    20    1
    24    20    21    1
@<TRIPOS>SUBSTRUCTURE
     1 lig         1 TEMP              0 ****  ****    0 ROOT


########## Name:		ligand
########## HA_RMSDs:		12.6819
########## HA_RMSDh:		12.6443
########## HA_RMSDm:		10.7784
########## Cluster Size:	1
##########    Grid Score:          -19.009155
##########      Grid_vdw:          -14.880746
##########       Grid_es:           -4.128409
##########    Int_energy:            2.333821

@<TRIPOS>MOLECULE
ligand
 24 24 1 0 0
SMALL
No Charge or Current Charge


@<TRIPOS>ATOM
      1 H1         10.8905    8.1679   23.7613 H       1  lig         0.1340
      2 H2         12.7685    9.5676   20.1934 H       1  lig         0.1340
      3 H3         13.0536    7.3487   24.5353 H       1  lig         0.1475
      4 H4         14.9470    8.6983   20.9468 H       1  lig         0.1475
      5 H5          9.9059    9.9990   22.2621 H       1  lig         0.0877
      6 H6         10.4859   10.1564   20.6344 H       1  lig         0.0877
      7 H7          9.8628    7.4984   20.5731 H       1  lig         0.0966
      8 H8          9.0388    9.2825   19.1155 H       1  lig         0.4431
      9 H9          7.7535    8.3491   19.5947 H       1  lig         0.4431
     10 H10         8.0181    9.8254   20.3193 H       1  lig         0.4431
     11 H11        15.9367    7.6948   22.6125 H       1  lig         0.4214
     12 C1         11.7696    8.2848   23.1326 C.ar    1  lig        -0.0999
     13 C2         12.8388    9.0636   21.1544 C.ar    1  lig        -0.0999
     14 C3         12.9848    7.8313   23.5665 C.ar    1  lig        -0.1787
     15 C4         14.0638    8.5737   21.5652 C.ar    1  lig        -0.1787
     16 C5         11.6903    8.8981   21.9200 C.ar    1  lig        -0.1394
     17 C6         14.1141    7.9343   22.7983 C.ar    1  lig         0.1292
     18 C7          8.5252    7.8895   22.1557 C.2     1  lig         0.9321
     19 C8         10.3512    9.4254   21.4408 C.3     1  lig        -0.0452
     20 C9          9.3464    8.3687   20.9807 C.3     1  lig        -0.0740
     21 N1          8.5074    8.9735   19.9467 N.4     1  lig        -0.8252
     22 O1          7.7586    8.7297   22.6216 O.co2   1  lig        -0.7573
     23 O2          8.6296    6.7315   22.6526 O.co2   1  lig        -0.7573
     24 O3         15.2128    7.5035   23.2766 O.3     1  lig        -0.4913
@<TRIPOS>BOND
     1     1    12    1
     2     2    13    1
     3     3    14    1
     4     4    15    1
     5     5    19    1
     6     6    19    1
     7     7    20    1
     8     8    21    1
     9     9    21    1
    10    10    21    1
    11    11    24    1
    12    12    14   ar
    13    12    16   ar
    14    13    15   ar
    15    13    16   ar
    16    14    17   ar
    17    15    17   ar
    18    16    19    1
    19    17    24    1
    20    18    20    1
    21    18    22    1
    22    18    23    1
    23    19    20    1
    24    20    21    1
@<TRIPOS>SUBSTRUCTURE
     1 lig         1 TEMP              0 ****  ****    0 ROOT


########## Name:		ligand
########## HA_RMSDs:		13.1943
########## HA_RMSDh:		13.1372
########## HA_RMSDm:		11.3118
########## Cluster Size:	1
##########    Grid Score:          -18.994213
##########      Grid_vdw:          -18.074377
##########       Grid_es:           -0.919837
##########    Int_energy:            4.006344

@<TRIPOS>MOLECULE
ligand
 24 24 1 0 0
SMALL
No Charge or Current Charge


@<TRIPOS>ATOM
      1 H1          8.3568   11.6974   25.3016 H       1  lig         0.1340
      2 H2         11.0086   10.7369   22.0982 H       1  lig         0.1340
      3 H3          6.8383    9.9568   24.5184 H       1  lig         0.1475
      4 H4          9.4563    9.0113   21.2725 H       1  lig         0.1475
      5 H5         11.4814   12.5616   23.4519 H       1  lig         0.0877
      6 H6         10.2154   13.3790   24.3118 H       1  lig         0.0877
      7 H7         12.4946   12.3339   25.4772 H       1  lig         0.0966
      8 H8         11.6428   10.0667   25.1292 H       1  lig         0.4431
      9 H9         11.6449   10.3917   26.7563 H       1  lig         0.4431
     10 H10        10.2165   10.4598   25.9020 H       1  lig         0.4431
     11 H11         6.2953    8.7458   22.8820 H       1  lig         0.4214
     12 C1          8.6066   11.1208   24.4145 C.ar    1  lig        -0.0999
     13 C2         10.0734   10.5635   22.6255 C.ar    1  lig        -0.0999
     14 C3          7.7595   10.1405   23.9763 C.ar    1  lig        -0.1787
     15 C4          9.2064    9.5981   22.1507 C.ar    1  lig        -0.1787
     16 C5          9.7659   11.3411   23.7361 C.ar    1  lig        -0.1394
     17 C6          8.0206    9.4061   22.8499 C.ar    1  lig         0.1292
     18 C7         10.8670   12.9895   26.6468 C.2     1  lig         0.9321
     19 C8         10.7226   12.4102   24.2285 C.3     1  lig        -0.0452
     20 C9         11.4289   12.1123   25.5516 C.3     1  lig        -0.0740
     21 N1         11.2396   10.6926   25.8467 N.4     1  lig        -0.8252
     22 O1          9.8517   12.5516   27.1835 O.co2   1  lig        -0.7573
     23 O2         11.3695   14.1025   26.9747 O.co2   1  lig        -0.7573
     24 O3          7.1925    8.4994   22.5131 O.3     1  lig        -0.4913
@<TRIPOS>BOND
     1     1    12    1
     2     2    13    1
     3     3    14    1
     4     4    15    1
     5     5    19    1
     6     6    19    1
     7     7    20    1
     8     8    21    1
     9     9    21    1
    10    10    21    1
    11    11    24    1
    12    12    14   ar
    13    12    16   ar
    14    13    15   ar
    15    13    16   ar
    16    14    17   ar
    17    15    17   ar
    18    16    19    1
    19    17    24    1
    20    18    20    1
    21    18    22    1
    22    18    23    1
    23    19    20    1
    24    20    21    1
@<TRIPOS>SUBSTRUCTURE
     1 lig         1 TEMP              0 ****  ****    0 ROOT


########## Name:		ligand
########## HA_RMSDs:		12.1355
########## HA_RMSDh:		12.0713
########## HA_RMSDm:		10.3552
########## Cluster Size:	1
##########    Grid Score:          -18.991707
##########      Grid_vdw:          -16.163082
##########       Grid_es:           -2.828625
##########    Int_energy:            2.064141

@<TRIPOS>MOLECULE
ligand
 24 24 1 0 0
SMALL
No Charge or Current Charge


@<TRIPOS>ATOM
      1 H1         11.4297    9.6795   23.8561 H       1  lig         0.1340
      2 H2         12.9261    9.1171   19.8988 H       1  lig         0.1340
      3 H3         13.6064    9.0165   24.7344 H       1  lig         0.1475
      4 H4         15.1115    8.3985   20.7801 H       1  lig         0.1475
      5 H5         10.3479   10.7084   21.8562 H       1  lig         0.0877
      6 H6         10.7915   10.2289   20.2488 H       1  lig         0.0877
      7 H7         10.0273    7.7814   21.2102 H       1  lig         0.0966
      8 H8          9.2018    8.9624   19.2326 H       1  lig         0.4431
      9 H9          7.9039    8.3793   20.0861 H       1  lig         0.4431
     10 H10         8.3062    9.9921   20.1936 H       1  lig         0.4431
     11 H11        16.2330    8.1197   22.6310 H       1  lig         0.4214
     12 C1         12.2253    9.3954   23.1719 C.ar    1  lig        -0.0999
     13 C2         13.0828    9.0825   20.9743 C.ar    1  lig        -0.0999
     14 C3         13.4485    9.0285   23.6616 C.ar    1  lig        -0.1787
     15 C4         14.3099    8.6718   21.4590 C.ar    1  lig        -0.1787
     16 C5         12.0351    9.4178   21.8242 C.ar    1  lig        -0.1394
     17 C6         14.4721    8.6389   22.8390 C.ar    1  lig         0.1292
     18 C7          8.8356    8.8361   22.5938 C.2     1  lig         0.9321
     19 C8         10.6891    9.8462   21.2714 C.3     1  lig        -0.0452
     20 C9          9.5936    8.7796   21.2873 C.3     1  lig        -0.0740
     21 N1          8.7166    9.0261   20.1434 N.4     1  lig        -0.8252
     22 O1          9.2836    8.1091   23.4777 O.co2   1  lig        -0.7573
     23 O2          7.8028    9.5440   22.7699 O.co2   1  lig        -0.7573
     24 O3         15.5877    8.3265   23.3675 O.3     1  lig        -0.4913
@<TRIPOS>BOND
     1     1    12    1
     2     2    13    1
     3     3    14    1
     4     4    15    1
     5     5    19    1
     6     6    19    1
     7     7    20    1
     8     8    21    1
     9     9    21    1
    10    10    21    1
    11    11    24    1
    12    12    14   ar
    13    12    16   ar
    14    13    15   ar
    15    13    16   ar
    16    14    17   ar
    17    15    17   ar
    18    16    19    1
    19    17    24    1
    20    18    20    1
    21    18    22    1
    22    18    23    1
    23    19    20    1
    24    20    21    1
@<TRIPOS>SUBSTRUCTURE
     1 lig         1 TEMP              0 ****  ****    0 ROOT


########## Name:		ligand
########## HA_RMSDs:		9.8477
########## HA_RMSDh:		9.8477
########## HA_RMSDm:		8.3945
########## Cluster Size:	1
##########    Grid Score:          -18.988855
##########      Grid_vdw:          -13.857637
##########       Grid_es:           -5.131218
##########    Int_energy:            2.362448

@<TRIPOS>MOLECULE
ligand
 24 24 1 0 0
SMALL
No Charge or Current Charge


@<TRIPOS>ATOM
      1 H1         15.8771   12.5015   25.6365 H       1  lig         0.1340
      2 H2         13.8920   10.8583   22.2344 H       1  lig         0.1340
      3 H3         13.7020   13.0263   26.6071 H       1  lig         0.1475
      4 H4         11.6930   11.4307   23.1862 H       1  lig         0.1475
      5 H5         16.2885   11.4334   22.1771 H       1  lig         0.0877
      6 H6         17.1283   12.0586   23.5607 H       1  lig         0.0877
      7 H7         16.8635    9.7284   24.6495 H       1  lig         0.0966
      8 H8         18.9070   10.5360   23.5731 H       1  lig         0.4431
      9 H9         18.7260    8.9225   23.2312 H       1  lig         0.4431
     10 H10        18.3349   10.0602   22.0791 H       1  lig         0.4431
     11 H11        10.7682   11.9894   25.1634 H       1  lig         0.4214
     12 C1         14.9690   12.2674   25.0868 C.ar    1  lig        -0.0999
     13 C2         13.8411   11.3499   23.2030 C.ar    1  lig        -0.0999
     14 C3         13.7478   12.5557   25.6311 C.ar    1  lig        -0.1787
     15 C4         12.6033   11.6729   23.7254 C.ar    1  lig        -0.1787
     16 C5         15.0209   11.6682   23.8657 C.ar    1  lig        -0.1394
     17 C6         12.5783   12.3018   24.9647 C.ar    1  lig         0.1292
     18 C7         16.0318    8.8818   22.9064 C.2     1  lig         0.9321
     19 C8         16.3703   11.3233   23.2647 C.3     1  lig        -0.0452
     20 C9         16.8988    9.9229   23.5766 C.3     1  lig        -0.0740
     21 N1         18.2826    9.8555   23.1083 N.4     1  lig        -0.8252
     22 O1         16.3919    8.5670   21.7742 O.co2   1  lig        -0.7573
     23 O2         14.9974    8.3881   23.4403 O.co2   1  lig        -0.7573
     24 O3         11.4791   12.5832   25.5426 O.3     1  lig        -0.4913
@<TRIPOS>BOND
     1     1    12    1
     2     2    13    1
     3     3    14    1
     4     4    15    1
     5     5    19    1
     6     6    19    1
     7     7    20    1
     8     8    21    1
     9     9    21    1
    10    10    21    1
    11    11    24    1
    12    12    14   ar
    13    12    16   ar
    14    13    15   ar
    15    13    16   ar
    16    14    17   ar
    17    15    17   ar
    18    16    19    1
    19    17    24    1
    20    18    20    1
    21    18    22    1
    22    18    23    1
    23    19    20    1
    24    20    21    1
@<TRIPOS>SUBSTRUCTURE
     1 lig         1 TEMP              0 ****  ****    0 ROOT


########## Name:		ligand
########## HA_RMSDs:		12.7271
########## HA_RMSDh:		12.6451
########## HA_RMSDm:		10.8601
########## Cluster Size:	2
##########    Grid Score:          -18.977850
##########      Grid_vdw:          -16.296797
##########       Grid_es:           -2.681053
##########    Int_energy:            2.090699

@<TRIPOS>MOLECULE
ligand
 24 24 1 0 0
SMALL
No Charge or Current Charge


@<TRIPOS>ATOM
      1 H1         11.1063   11.0230   21.6776 H       1  lig         0.1340
      2 H2          7.8614    9.4661   23.9716 H       1  lig         0.1340
      3 H3         10.4045    9.6272   19.8047 H       1  lig         0.1475
      4 H4          7.1769    8.0167   22.1009 H       1  lig         0.1475
      5 H5         10.4889   12.0625   23.6982 H       1  lig         0.0877
      6 H6          9.0867   11.6160   24.6175 H       1  lig         0.0877
      7 H7         10.3842    9.6332   25.5573 H       1  lig         0.0966
      8 H8         10.2081   11.7860   26.7067 H       1  lig         0.4431
      9 H9         11.7196   11.1581   26.9791 H       1  lig         0.4431
     10 H10        11.5194   12.3726   25.8567 H       1  lig         0.4431
     11 H11         9.1374    8.2269   19.0876 H       1  lig         0.4214
     12 C1         10.2480   10.3646   21.7856 C.ar    1  lig        -0.0999
     13 C2          8.4280    9.4886   23.0437 C.ar    1  lig        -0.0999
     14 C3          9.8490    9.5849   20.7352 C.ar    1  lig        -0.1787
     15 C4          8.0402    8.6671   22.0026 C.ar    1  lig        -0.1787
     16 C5          9.5419   10.3148   22.9482 C.ar    1  lig        -0.1394
     17 C6          8.7895    8.7224   20.8332 C.ar    1  lig         0.1292
     18 C7         12.1612   10.0965   24.5207 C.2     1  lig         0.9321
     19 C8          9.9629   11.1936   24.1108 C.3     1  lig        -0.0452
     20 C9         10.8597   10.5294   25.1559 C.3     1  lig        -0.0740
     21 N1         11.0792   11.4953   26.2318 N.4     1  lig        -0.8252
     22 O1         12.1783    8.9309   24.1312 O.co2   1  lig        -0.7573
     23 O2         13.1715   10.8500   24.4196 O.co2   1  lig        -0.7573
     24 O3          8.4673    8.0404   19.8073 O.3     1  lig        -0.4913
@<TRIPOS>BOND
     1     1    12    1
     2     2    13    1
     3     3    14    1
     4     4    15    1
     5     5    19    1
     6     6    19    1
     7     7    20    1
     8     8    21    1
     9     9    21    1
    10    10    21    1
    11    11    24    1
    12    12    14   ar
    13    12    16   ar
    14    13    15   ar
    15    13    16   ar
    16    14    17   ar
    17    15    17   ar
    18    16    19    1
    19    17    24    1
    20    18    20    1
    21    18    22    1
    22    18    23    1
    23    19    20    1
    24    20    21    1
@<TRIPOS>SUBSTRUCTURE
     1 lig         1 TEMP              0 ****  ****    0 ROOT


########## Name:		ligand
########## HA_RMSDs:		11.3372
########## HA_RMSDh:		11.2733
########## HA_RMSDm:		9.4901
########## Cluster Size:	1
##########    Grid Score:          -18.970491
##########      Grid_vdw:          -18.496975
##########       Grid_es:           -0.473516
##########    Int_energy:            1.737576

@<TRIPOS>MOLECULE
ligand
 24 24 1 0 0
SMALL
No Charge or Current Charge


@<TRIPOS>ATOM
      1 H1         13.7574   11.7403   24.0699 H       1  lig         0.1340
      2 H2         12.4525    9.1141   20.9690 H       1  lig         0.1340
      3 H3         15.9138   10.6007   24.0780 H       1  lig         0.1475
      4 H4         14.6106    7.9264   21.0066 H       1  lig         0.1475
      5 H5         11.8203   12.2721   22.6364 H       1  lig         0.0877
      6 H6         11.1551   11.1160   21.5266 H       1  lig         0.0877
      7 H7         11.0968   10.1193   24.3180 H       1  lig         0.0966
      8 H8          9.8871    9.1714   22.4141 H       1  lig         0.4431
      9 H9          8.7851    9.7135   23.5297 H       1  lig         0.4431
     10 H10         9.0955   10.6198   22.1671 H       1  lig         0.4431
     11 H11        16.6232    8.0162   21.8664 H       1  lig         0.4214
     12 C1         13.9290   10.9027   23.3985 C.ar    1  lig        -0.0999
     13 C2         13.2251    9.4324   21.6650 C.ar    1  lig        -0.0999
     14 C3         15.1391   10.2654   23.3972 C.ar    1  lig        -0.1787
     15 C4         14.4297    8.7557   21.6831 C.ar    1  lig        -0.1787
     16 C5         12.9632   10.4841   22.5355 C.ar    1  lig        -0.1394
     17 C6         15.3920    9.1903   22.5870 C.ar    1  lig         0.1292
     18 C7         10.0806   11.9670   24.3100 C.2     1  lig         0.9321
     19 C8         11.6262   11.2001   22.5134 C.3     1  lig        -0.0452
     20 C9         10.6184   10.7601   23.5759 C.3     1  lig        -0.0740
     21 N1          9.5532   10.0211   22.8992 N.4     1  lig        -0.8252
     22 O1         10.9218   12.5939   24.9503 O.co2   1  lig        -0.7573
     23 O2          8.8609   12.3002   24.3030 O.co2   1  lig        -0.7573
     24 O3         16.5482    8.6587   22.6301 O.3     1  lig        -0.4913
@<TRIPOS>BOND
     1     1    12    1
     2     2    13    1
     3     3    14    1
     4     4    15    1
     5     5    19    1
     6     6    19    1
     7     7    20    1
     8     8    21    1
     9     9    21    1
    10    10    21    1
    11    11    24    1
    12    12    14   ar
    13    12    16   ar
    14    13    15   ar
    15    13    16   ar
    16    14    17   ar
    17    15    17   ar
    18    16    19    1
    19    17    24    1
    20    18    20    1
    21    18    22    1
    22    18    23    1
    23    19    20    1
    24    20    21    1
@<TRIPOS>SUBSTRUCTURE
     1 lig         1 TEMP              0 ****  ****    0 ROOT


########## Name:		ligand
########## HA_RMSDs:		12.3288
########## HA_RMSDh:		12.2922
########## HA_RMSDm:		10.5784
########## Cluster Size:	1
##########    Grid Score:          -18.959726
##########      Grid_vdw:          -14.744250
##########       Grid_es:           -4.215476
##########    Int_energy:            3.529994

@<TRIPOS>MOLECULE
ligand
 24 24 1 0 0
SMALL
No Charge or Current Charge


@<TRIPOS>ATOM
      1 H1         13.0480   11.0195   24.4122 H       1  lig         0.1340
      2 H2          9.3946    8.9142   23.7520 H       1  lig         0.1340
      3 H3         13.5746   10.7755   22.0432 H       1  lig         0.1475
      4 H4          9.9435    8.6206   21.3684 H       1  lig         0.1475
      5 H5         10.3374    9.2183   26.0272 H       1  lig         0.0877
      6 H6         11.7690   10.1556   26.3140 H       1  lig         0.0877
      7 H7         10.3298   11.7922   26.9878 H       1  lig         0.0966
      8 H8          8.4936   10.1755   26.9495 H       1  lig         0.4431
      9 H9          7.9318   11.6339   26.3924 H       1  lig         0.4431
     10 H10         8.2852   10.4170   25.3112 H       1  lig         0.4431
     11 H11        12.2493   10.5336   19.9931 H       1  lig         0.4214
     12 C1         12.3627   10.4866   23.7579 C.ar    1  lig        -0.0999
     13 C2         10.3278    9.3170   23.3655 C.ar    1  lig        -0.0999
     14 C3         12.6529   10.3530   22.4280 C.ar    1  lig        -0.1787
     15 C4         10.6298    9.1414   22.0286 C.ar    1  lig        -0.1787
     16 C5         11.2001    9.9627   24.2342 C.ar    1  lig        -0.1394
     17 C6         11.8318    9.6687   21.5715 C.ar    1  lig         0.1292
     18 C7         10.1199   12.3918   24.9770 C.2     1  lig         0.9321
     19 C8         10.8587   10.1265   25.7030 C.3     1  lig        -0.0452
     20 C9          9.9949   11.3384   26.0539 C.3     1  lig        -0.0740
     21 N1          8.6155   10.8745   26.1975 N.4     1  lig        -0.8252
     22 O1         11.0668   13.1620   25.1213 O.co2   1  lig        -0.7573
     23 O2          9.3059   12.5058   24.0162 O.co2   1  lig        -0.7573
     24 O3         12.1606    9.6003   20.3433 O.3     1  lig        -0.4913
@<TRIPOS>BOND
     1     1    12    1
     2     2    13    1
     3     3    14    1
     4     4    15    1
     5     5    19    1
     6     6    19    1
     7     7    20    1
     8     8    21    1
     9     9    21    1
    10    10    21    1
    11    11    24    1
    12    12    14   ar
    13    12    16   ar
    14    13    15   ar
    15    13    16   ar
    16    14    17   ar
    17    15    17   ar
    18    16    19    1
    19    17    24    1
    20    18    20    1
    21    18    22    1
    22    18    23    1
    23    19    20    1
    24    20    21    1
@<TRIPOS>SUBSTRUCTURE
     1 lig         1 TEMP              0 ****  ****    0 ROOT


########## Name:		ligand
########## HA_RMSDs:		14.9254
########## HA_RMSDh:		14.8664
########## HA_RMSDm:		12.5963
########## Cluster Size:	1
##########    Grid Score:          -18.951628
##########      Grid_vdw:          -16.846918
##########       Grid_es:           -2.104709
##########    Int_energy:            2.118245

@<TRIPOS>MOLECULE
ligand
 24 24 1 0 0
SMALL
No Charge or Current Charge


@<TRIPOS>ATOM
      1 H1          6.8792    7.9145   21.1501 H       1  lig         0.1340
      2 H2          9.1491    9.9149   24.1602 H       1  lig         0.1340
      3 H3          8.6897    8.3194   19.5668 H       1  lig         0.1475
      4 H4         10.9600   10.3711   22.5534 H       1  lig         0.1475
      5 H5          7.1972    8.7450   24.7482 H       1  lig         0.0877
      6 H6          6.0090    9.4264   23.6831 H       1  lig         0.0877
      7 H7          6.4730    6.7314   22.7654 H       1  lig         0.0966
      8 H8          4.4184    8.0528   22.6274 H       1  lig         0.4431
      9 H9          4.0914    6.6415   23.4363 H       1  lig         0.4431
     10 H10         4.2834    8.0582   24.2910 H       1  lig         0.4431
     11 H11        10.4129    9.3988   19.1570 H       1  lig         0.4214
     12 C1          7.7644    8.4591   21.4686 C.ar    1  lig        -0.0999
     13 C2          9.0506    9.5717   23.1331 C.ar    1  lig        -0.0999
     14 C3          8.7835    8.6828   20.5843 C.ar    1  lig        -0.1787
     15 C4         10.0687    9.8383   22.2377 C.ar    1  lig        -0.1787
     16 C5          7.8912    8.9090   22.7470 C.ar    1  lig        -0.1394
     17 C6          9.9062    9.3854   20.9337 C.ar    1  lig         0.1292
     18 C7          6.3977    6.4488   24.8538 C.2     1  lig         0.9321
     19 C8          6.7762    8.6448   23.7410 C.3     1  lig        -0.0452
     20 C9          6.0946    7.2807   23.6288 C.3     1  lig        -0.0740
     21 N1          4.6588    7.5125   23.4754 N.4     1  lig        -0.8252
     22 O1          7.5653    6.0757   24.9436 O.co2   1  lig        -0.7573
     23 O2          5.5251    6.1261   25.7101 O.co2   1  lig        -0.7573
     24 O3         10.8200    9.5395   20.0604 O.3     1  lig        -0.4913
@<TRIPOS>BOND
     1     1    12    1
     2     2    13    1
     3     3    14    1
     4     4    15    1
     5     5    19    1
     6     6    19    1
     7     7    20    1
     8     8    21    1
     9     9    21    1
    10    10    21    1
    11    11    24    1
    12    12    14   ar
    13    12    16   ar
    14    13    15   ar
    15    13    16   ar
    16    14    17   ar
    17    15    17   ar
    18    16    19    1
    19    17    24    1
    20    18    20    1
    21    18    22    1
    22    18    23    1
    23    19    20    1
    24    20    21    1
@<TRIPOS>SUBSTRUCTURE
     1 lig         1 TEMP              0 ****  ****    0 ROOT


########## Name:		ligand
########## HA_RMSDs:		12.7869
########## HA_RMSDh:		12.7688
########## HA_RMSDm:		11.0250
########## Cluster Size:	1
##########    Grid Score:          -18.936785
##########      Grid_vdw:          -16.399090
##########       Grid_es:           -2.537694
##########    Int_energy:            2.301047

@<TRIPOS>MOLECULE
ligand
 24 24 1 0 0
SMALL
No Charge or Current Charge


@<TRIPOS>ATOM
      1 H1          9.5344    8.3142   23.8730 H       1  lig         0.1340
      2 H2         11.4820   10.1076   20.5254 H       1  lig         0.1340
      3 H3         11.6308    8.4388   25.1134 H       1  lig         0.1475
      4 H4         13.6150   10.1907   21.7552 H       1  lig         0.1475
      5 H5          8.2839    9.4897   22.0056 H       1  lig         0.0877
      6 H6          9.0878    9.8306   20.5063 H       1  lig         0.0877
      7 H7          8.7176    7.0015   21.6144 H       1  lig         0.0966
      8 H8         10.6000    7.3218   20.0844 H       1  lig         0.4431
      9 H9          9.4100    6.4760   19.2961 H       1  lig         0.4431
     10 H10         9.6082    8.1016   18.9916 H       1  lig         0.4431
     11 H11        14.5696    9.5565   23.6387 H       1  lig         0.4214
     12 C1         10.4220    8.7215   23.3955 C.ar    1  lig        -0.0999
     13 C2         11.5262    9.7292   21.5440 C.ar    1  lig        -0.0999
     14 C3         11.5975    8.7976   24.0905 C.ar    1  lig        -0.1787
     15 C4         12.7287    9.7741   22.2231 C.ar    1  lig        -0.1787
     16 C5         10.3831    9.1819   22.1151 C.ar    1  lig        -0.1394
     17 C6         12.7466    9.2799   23.5220 C.ar    1  lig         0.1292
     18 C7          7.2550    7.7782   20.3089 C.2     1  lig         0.9321
     19 C8          9.0778    9.1233   21.3444 C.3     1  lig        -0.0452
     20 C9          8.6782    7.7449   20.8169 C.3     1  lig        -0.0740
     21 N1          9.6207    7.3836   19.7586 N.4     1  lig        -0.8252
     22 O1          6.9108    8.8519   19.8196 O.co2   1  lig        -0.7573
     23 O2          6.4591    6.8001   20.4017 O.co2   1  lig        -0.7573
     24 O3         13.7987    9.3347   24.2371 O.3     1  lig        -0.4913
@<TRIPOS>BOND
     1     1    12    1
     2     2    13    1
     3     3    14    1
     4     4    15    1
     5     5    19    1
     6     6    19    1
     7     7    20    1
     8     8    21    1
     9     9    21    1
    10    10    21    1
    11    11    24    1
    12    12    14   ar
    13    12    16   ar
    14    13    15   ar
    15    13    16   ar
    16    14    17   ar
    17    15    17   ar
    18    16    19    1
    19    17    24    1
    20    18    20    1
    21    18    22    1
    22    18    23    1
    23    19    20    1
    24    20    21    1
@<TRIPOS>SUBSTRUCTURE
     1 lig         1 TEMP              0 ****  ****    0 ROOT


########## Name:		ligand
########## HA_RMSDs:		11.9173
########## HA_RMSDh:		11.8141
########## HA_RMSDm:		7.5113
########## Cluster Size:	2
##########    Grid Score:          -18.928259
##########      Grid_vdw:          -17.527258
##########       Grid_es:           -1.401001
##########    Int_energy:            3.189079

@<TRIPOS>MOLECULE
ligand
 24 24 1 0 0
SMALL
No Charge or Current Charge


@<TRIPOS>ATOM
      1 H1         16.6243   17.1608   26.0560 H       1  lig         0.1340
      2 H2         15.1074   14.0858   28.5974 H       1  lig         0.1340
      3 H3         16.4939   15.6178   24.1716 H       1  lig         0.1475
      4 H4         15.0202   12.5069   26.7082 H       1  lig         0.1475
      5 H5         16.5950   16.2201   29.3887 H       1  lig         0.0877
      6 H6         16.4779   17.5976   28.3402 H       1  lig         0.0877
      7 H7         14.1164   16.1501   29.6398 H       1  lig         0.0966
      8 H8         13.5973   17.0260   27.4149 H       1  lig         0.4431
      9 H9         12.8617   17.9859   28.5509 H       1  lig         0.4431
     10 H10        14.2643   18.5025   27.8159 H       1  lig         0.4431
     11 H11        15.4883   12.3111   24.5773 H       1  lig         0.4214
     12 C1         16.2773   16.1428   26.2137 C.ar    1  lig        -0.0999
     13 C2         15.4235   14.4159   27.6106 C.ar    1  lig        -0.0999
     14 C3         16.1980   15.2771   25.1578 C.ar    1  lig        -0.1787
     15 C4         15.3772   13.5210   26.5588 C.ar    1  lig        -0.1787
     16 C5         15.8958   15.7131   27.4476 C.ar    1  lig        -0.1394
     17 C6         15.7906   13.9786   25.3132 C.ar    1  lig         0.1292
     18 C7         14.8298   17.9749   30.4196 C.2     1  lig         0.9321
     19 C8         15.9580   16.6734   28.6202 C.3     1  lig        -0.0452
     20 C9         14.6145   17.0398   29.2517 C.3     1  lig        -0.0740
     21 N1         13.7882   17.6544   28.2134 N.4     1  lig        -0.8252
     22 O1         15.9647   17.9526   30.8911 O.co2   1  lig        -0.7573
     23 O2         13.9182   18.7039   30.9056 O.co2   1  lig        -0.7573
     24 O3         15.7270   13.2366   24.2804 O.3     1  lig        -0.4913
@<TRIPOS>BOND
     1     1    12    1
     2     2    13    1
     3     3    14    1
     4     4    15    1
     5     5    19    1
     6     6    19    1
     7     7    20    1
     8     8    21    1
     9     9    21    1
    10    10    21    1
    11    11    24    1
    12    12    14   ar
    13    12    16   ar
    14    13    15   ar
    15    13    16   ar
    16    14    17   ar
    17    15    17   ar
    18    16    19    1
    19    17    24    1
    20    18    20    1
    21    18    22    1
    22    18    23    1
    23    19    20    1
    24    20    21    1
@<TRIPOS>SUBSTRUCTURE
     1 lig         1 TEMP              0 ****  ****    0 ROOT


########## Name:		ligand
########## HA_RMSDs:		12.1113
########## HA_RMSDh:		12.0501
########## HA_RMSDm:		10.0138
########## Cluster Size:	2
##########    Grid Score:          -18.909575
##########      Grid_vdw:          -18.140537
##########       Grid_es:           -0.769037
##########    Int_energy:            1.603018

@<TRIPOS>MOLECULE
ligand
 24 24 1 0 0
SMALL
No Charge or Current Charge


@<TRIPOS>ATOM
      1 H1         13.4048   12.0617   24.6786 H       1  lig         0.1340
      2 H2          9.5389   11.4871   22.9638 H       1  lig         0.1340
      3 H3         14.3532   10.6640   22.9191 H       1  lig         0.1475
      4 H4         10.4833   10.0338   21.2130 H       1  lig         0.1475
      5 H5         11.2129   13.7381   24.8836 H       1  lig         0.0877
      6 H6          9.7338   12.8310   24.8920 H       1  lig         0.0877
      7 H7         12.1661   12.2424   26.6542 H       1  lig         0.0966
      8 H8         10.8990   10.2464   26.0240 H       1  lig         0.4431
      9 H9         10.5905   10.5931   27.6171 H       1  lig         0.4431
     10 H10         9.4684   10.9918   26.4524 H       1  lig         0.4431
     11 H11        12.4135    9.4104   20.3403 H       1  lig         0.4214
     12 C1         12.7532   11.6187   23.9296 C.ar    1  lig        -0.0999
     13 C2         10.6085   11.2908   22.9524 C.ar    1  lig        -0.0999
     14 C3         13.2831   10.8389   22.9387 C.ar    1  lig        -0.1787
     15 C4         11.1276   10.4690   21.9703 C.ar    1  lig        -0.1787
     16 C5         11.4107   11.8429   23.9443 C.ar    1  lig        -0.1394
     17 C6         12.4984   10.2401   21.9889 C.ar    1  lig         0.1292
     18 C7         10.5149   13.2996   27.4306 C.2     1  lig         0.9321
     19 C8         10.8173   12.7256   25.0257 C.3     1  lig        -0.0452
     20 C9         11.0927   12.2901   26.4653 C.3     1  lig        -0.0740
     21 N1         10.5000   10.9660   26.6502 N.4     1  lig        -0.8252
     22 O1         11.0841   14.3889   27.4342 O.co2   1  lig        -0.7573
     23 O2          9.5453   13.0494   28.2027 O.co2   1  lig        -0.7573
     24 O3         13.0655    9.5413   21.0882 O.3     1  lig        -0.4913
@<TRIPOS>BOND
     1     1    12    1
     2     2    13    1
     3     3    14    1
     4     4    15    1
     5     5    19    1
     6     6    19    1
     7     7    20    1
     8     8    21    1
     9     9    21    1
    10    10    21    1
    11    11    24    1
    12    12    14   ar
    13    12    16   ar
    14    13    15   ar
    15    13    16   ar
    16    14    17   ar
    17    15    17   ar
    18    16    19    1
    19    17    24    1
    20    18    20    1
    21    18    22    1
    22    18    23    1
    23    19    20    1
    24    20    21    1
@<TRIPOS>SUBSTRUCTURE
     1 lig         1 TEMP              0 ****  ****    0 ROOT


########## Name:		ligand
########## HA_RMSDs:		13.9026
########## HA_RMSDh:		13.8461
########## HA_RMSDm:		11.6260
########## Cluster Size:	1
##########    Grid Score:          -18.906763
##########      Grid_vdw:          -18.728382
##########       Grid_es:           -0.178382
##########    Int_energy:            2.760487

@<TRIPOS>MOLECULE
ligand
 24 24 1 0 0
SMALL
No Charge or Current Charge


@<TRIPOS>ATOM
      1 H1         10.8089   11.2142   22.2715 H       1  lig         0.1340
      2 H2          7.1687    9.6395   23.8479 H       1  lig         0.1340
      3 H3         10.6822    9.5912   20.4553 H       1  lig         0.1475
      4 H4          7.0609    7.9648   22.0444 H       1  lig         0.1475
      5 H5          9.8013   12.2995   24.0193 H       1  lig         0.0877
      6 H6          8.1233   12.0721   24.3979 H       1  lig         0.0877
      7 H7         10.0796   11.6997   26.2214 H       1  lig         0.0966
      8 H8         11.0749    9.8730   24.9334 H       1  lig         0.4431
      9 H9         10.4744    9.2591   26.3531 H       1  lig         0.4431
     10 H10         9.6231    9.0495   24.9368 H       1  lig         0.4431
     11 H11         9.8051    7.8638   19.7461 H       1  lig         0.4214
     12 C1          9.9864   10.5043   22.2370 C.ar    1  lig        -0.0999
     13 C2          7.9521    9.6156   23.0941 C.ar    1  lig        -0.0999
     14 C3          9.9100    9.5967   21.2167 C.ar    1  lig        -0.1787
     15 C4          7.8862    8.6682   22.0903 C.ar    1  lig        -0.1787
     16 C5          9.0096   10.5133   23.1850 C.ar    1  lig        -0.1394
     17 C6          8.9061    8.6675   21.1460 C.ar    1  lig         0.1292
     18 C7          8.2164   10.7562   26.5135 C.2     1  lig         0.9321
     19 C8          9.0734   11.5319   24.3072 C.3     1  lig        -0.0452
     20 C9          9.4579   10.9837   25.6818 C.3     1  lig        -0.0740
     21 N1         10.2027    9.7426   25.4731 N.4     1  lig        -0.8252
     22 O1          7.7449   11.7725   27.0187 O.co2   1  lig        -0.7573
     23 O2          7.7096    9.6147   26.7107 O.co2   1  lig        -0.7573
     24 O3          8.8926    7.8652   20.1573 O.3     1  lig        -0.4913
@<TRIPOS>BOND
     1     1    12    1
     2     2    13    1
     3     3    14    1
     4     4    15    1
     5     5    19    1
     6     6    19    1
     7     7    20    1
     8     8    21    1
     9     9    21    1
    10    10    21    1
    11    11    24    1
    12    12    14   ar
    13    12    16   ar
    14    13    15   ar
    15    13    16   ar
    16    14    17   ar
    17    15    17   ar
    18    16    19    1
    19    17    24    1
    20    18    20    1
    21    18    22    1
    22    18    23    1
    23    19    20    1
    24    20    21    1
@<TRIPOS>SUBSTRUCTURE
     1 lig         1 TEMP              0 ****  ****    0 ROOT


########## Name:		ligand
########## HA_RMSDs:		14.1964
########## HA_RMSDh:		14.1397
########## HA_RMSDm:		11.8855
########## Cluster Size:	1
##########    Grid Score:          -18.905617
##########      Grid_vdw:          -14.694130
##########       Grid_es:           -4.211486
##########    Int_energy:            1.976488

@<TRIPOS>MOLECULE
ligand
 24 24 1 0 0
SMALL
No Charge or Current Charge


@<TRIPOS>ATOM
      1 H1         11.9077   13.1035   27.5484 H       1  lig         0.1340
      2 H2         11.9288   12.6954   31.7967 H       1  lig         0.1340
      3 H3         13.5301   14.9134   27.7504 H       1  lig         0.1475
      4 H4         13.5295   14.5557   32.0114 H       1  lig         0.1475
      5 H5         11.2686   10.8779   28.9333 H       1  lig         0.0877
      6 H6         10.6303   11.1937   30.5155 H       1  lig         0.0877
      7 H7          9.2924   13.1039   28.9525 H       1  lig         0.0966
      8 H8          8.3918   11.6387   30.6929 H       1  lig         0.4431
      9 H9          7.4514   11.4928   29.3337 H       1  lig         0.4431
     10 H10         8.5672   10.3107   29.6971 H       1  lig         0.4431
     11 H11        15.0365   15.6791   30.7080 H       1  lig         0.4214
     12 C1         12.2498   13.4158   28.5318 C.ar    1  lig        -0.0999
     13 C2         12.2829   13.2010   30.9015 C.ar    1  lig        -0.0999
     14 C3         13.1637   14.4268   28.6477 C.ar    1  lig        -0.1787
     15 C4         13.1755   14.2476   31.0327 C.ar    1  lig        -0.1787
     16 C5         11.8001   12.8021   29.6604 C.ar    1  lig        -0.1394
     17 C6         13.6043   14.8704   29.8664 C.ar    1  lig         0.1292
     18 C7          9.4207   11.6099   27.4698 C.2     1  lig         0.9321
     19 C8         10.8044   11.6641   29.5402 C.3     1  lig        -0.0452
     20 C9          9.4530   12.0252   28.9228 C.3     1  lig        -0.0740
     21 N1          8.4144   11.3502   29.7003 N.4     1  lig        -0.8252
     22 O1          9.3890   12.5434   26.6708 O.co2   1  lig        -0.7573
     23 O2          9.3948   10.4041   27.0903 O.co2   1  lig        -0.7573
     24 O3         14.4681   15.8054   29.8940 O.3     1  lig        -0.4913
@<TRIPOS>BOND
     1     1    12    1
     2     2    13    1
     3     3    14    1
     4     4    15    1
     5     5    19    1
     6     6    19    1
     7     7    20    1
     8     8    21    1
     9     9    21    1
    10    10    21    1
    11    11    24    1
    12    12    14   ar
    13    12    16   ar
    14    13    15   ar
    15    13    16   ar
    16    14    17   ar
    17    15    17   ar
    18    16    19    1
    19    17    24    1
    20    18    20    1
    21    18    22    1
    22    18    23    1
    23    19    20    1
    24    20    21    1
@<TRIPOS>SUBSTRUCTURE
     1 lig         1 TEMP              0 ****  ****    0 ROOT


########## Name:		ligand
########## HA_RMSDs:		14.4164
########## HA_RMSDh:		14.3640
########## HA_RMSDm:		12.7717
########## Cluster Size:	1
##########    Grid Score:          -18.902006
##########      Grid_vdw:          -16.850336
##########       Grid_es:           -2.051670
##########    Int_energy:            4.218534

@<TRIPOS>MOLECULE
ligand
 24 24 1 0 0
SMALL
No Charge or Current Charge


@<TRIPOS>ATOM
      1 H1         21.9740    4.9379   12.6658 H       1  lig         0.1340
      2 H2         24.9609    7.0052   14.9064 H       1  lig         0.1340
      3 H3         21.8175    6.8587   11.1709 H       1  lig         0.1475
      4 H4         24.7721    8.9683   13.4300 H       1  lig         0.1475
      5 H5         24.5354    4.7352   15.3379 H       1  lig         0.0877
      6 H6         22.8222    4.7099   15.6112 H       1  lig         0.0877
      7 H7         22.5448    3.1888   13.6011 H       1  lig         0.0966
      8 H8         22.8046    2.3330   15.8786 H       1  lig         0.4431
      9 H9         23.5682    1.2985   14.8299 H       1  lig         0.4431
     10 H10        24.4664    2.3752   15.7290 H       1  lig         0.4431
     11 H11        22.4669    8.7054   10.6770 H       1  lig         0.4214
     12 C1         22.5877    5.8165   12.8480 C.ar    1  lig        -0.0999
     13 C2         24.2565    6.9846   14.0782 C.ar    1  lig        -0.0999
     14 C3         22.5059    6.8928   12.0081 C.ar    1  lig        -0.1787
     15 C4         24.1532    8.0931   13.2597 C.ar    1  lig        -0.1787
     16 C5         23.4601    5.8606   13.8920 C.ar    1  lig        -0.1394
     17 C6         23.2411    8.0303   12.2128 C.ar    1  lig         0.1292
     18 C7         24.5991    3.1434   13.1271 C.2     1  lig         0.9321
     19 C8         23.5747    4.6622   14.8148 C.3     1  lig        -0.0452
     20 C9         23.4875    3.2927   14.1404 C.3     1  lig        -0.0740
     21 N1         23.5715    2.2753   15.1876 N.4     1  lig        -0.8252
     22 O1         25.6247    3.7647   13.3967 O.co2   1  lig        -0.7573
     23 O2         24.4881    2.4645   12.0662 O.co2   1  lig        -0.7573
     24 O3         23.1232    8.9853   11.3789 O.3     1  lig        -0.4913
@<TRIPOS>BOND
     1     1    12    1
     2     2    13    1
     3     3    14    1
     4     4    15    1
     5     5    19    1
     6     6    19    1
     7     7    20    1
     8     8    21    1
     9     9    21    1
    10    10    21    1
    11    11    24    1
    12    12    14   ar
    13    12    16   ar
    14    13    15   ar
    15    13    16   ar
    16    14    17   ar
    17    15    17   ar
    18    16    19    1
    19    17    24    1
    20    18    20    1
    21    18    22    1
    22    18    23    1
    23    19    20    1
    24    20    21    1
@<TRIPOS>SUBSTRUCTURE
     1 lig         1 TEMP              0 ****  ****    0 ROOT


########## Name:		ligand
########## HA_RMSDs:		14.1022
########## HA_RMSDh:		14.0911
########## HA_RMSDm:		12.5512
########## Cluster Size:	1
##########    Grid Score:          -18.858902
##########      Grid_vdw:          -15.697019
##########       Grid_es:           -3.161883
##########    Int_energy:            3.325291

@<TRIPOS>MOLECULE
ligand
 24 24 1 0 0
SMALL
No Charge or Current Charge


@<TRIPOS>ATOM
      1 H1         24.9763    7.3156   14.9275 H       1  lig         0.1340
      2 H2         21.7983    5.2765   12.9381 H       1  lig         0.1340
      3 H3         24.9532    8.9985   13.1623 H       1  lig         0.1475
      4 H4         21.8032    6.9454   11.1260 H       1  lig         0.1475
      5 H5         24.3630    5.2074   15.6594 H       1  lig         0.0877
      6 H6         22.6534    5.3824   15.8985 H       1  lig         0.0877
      7 H7         22.2412    3.5880   14.1608 H       1  lig         0.0966
      8 H8         22.4344    3.0854   16.5476 H       1  lig         0.4431
      9 H9         23.0990    1.8345   15.6837 H       1  lig         0.4431
     10 H10        24.0928    2.9572   16.4093 H       1  lig         0.4431
     11 H11        22.8507    8.7317   10.4036 H       1  lig         0.4214
     12 C1         24.2808    7.2193   14.0976 C.ar    1  lig        -0.0999
     13 C2         22.5041    6.1030   12.9754 C.ar    1  lig        -0.0999
     14 C3         24.2620    8.1645   13.1092 C.ar    1  lig        -0.1787
     15 C4         22.5035    7.0302   11.9509 C.ar    1  lig        -0.1787
     16 C5         23.4049    6.1795   14.0313 C.ar    1  lig        -0.1394
     17 C6         23.4208    8.0713   12.0323 C.ar    1  lig         0.1292
     18 C7         24.2814    3.2875   13.7200 C.2     1  lig         0.9321
     19 C8         23.4025    5.1392   15.1353 C.3     1  lig        -0.0452
     20 C9         23.1917    3.6930   14.6859 C.3     1  lig        -0.0740
     21 N1         23.1902    2.8516   15.8820 N.4     1  lig        -0.8252
     22 O1         24.0162    3.4853   12.5363 O.co2   1  lig        -0.7573
     23 O2         25.3704    2.7563   14.0814 O.co2   1  lig        -0.7573
     24 O3         23.4494    8.9984   11.1600 O.3     1  lig        -0.4913
@<TRIPOS>BOND
     1     1    12    1
     2     2    13    1
     3     3    14    1
     4     4    15    1
     5     5    19    1
     6     6    19    1
     7     7    20    1
     8     8    21    1
     9     9    21    1
    10    10    21    1
    11    11    24    1
    12    12    14   ar
    13    12    16   ar
    14    13    15   ar
    15    13    16   ar
    16    14    17   ar
    17    15    17   ar
    18    16    19    1
    19    17    24    1
    20    18    20    1
    21    18    22    1
    22    18    23    1
    23    19    20    1
    24    20    21    1
@<TRIPOS>SUBSTRUCTURE
     1 lig         1 TEMP              0 ****  ****    0 ROOT


########## Name:		ligand
########## HA_RMSDs:		13.3299
########## HA_RMSDh:		13.2714
########## HA_RMSDm:		11.3474
########## Cluster Size:	1
##########    Grid Score:          -18.843868
##########      Grid_vdw:          -15.258514
##########       Grid_es:           -3.585353
##########    Int_energy:            3.442047

@<TRIPOS>MOLECULE
ligand
 24 24 1 0 0
SMALL
No Charge or Current Charge


@<TRIPOS>ATOM
      1 H1         10.1050    7.7084   20.1420 H       1  lig         0.1340
      2 H2         10.2773    8.3656   24.3555 H       1  lig         0.1340
      3 H3         11.2866    9.8148   19.8016 H       1  lig         0.1475
      4 H4         11.4267   10.5182   24.0170 H       1  lig         0.1475
      5 H5          9.7283    5.8975   21.7207 H       1  lig         0.0877
      6 H6          9.6804    6.1436   23.4376 H       1  lig         0.0877
      7 H7          7.4635    7.2854   23.2400 H       1  lig         0.0966
      8 H8          7.6143    4.8556   23.4857 H       1  lig         0.4431
      9 H9          6.3132    5.2143   22.5205 H       1  lig         0.4431
     10 H10         7.7294    4.6728   21.8306 H       1  lig         0.4431
     11 H11        12.1251   11.4627   20.6128 H       1  lig         0.4214
     12 C1         10.3831    8.3171   20.9987 C.ar    1  lig        -0.0999
     13 C2         10.4971    8.7003   23.3444 C.ar    1  lig        -0.0999
     14 C3         11.0505    9.4960   20.8110 C.ar    1  lig        -0.1787
     15 C4         11.1361    9.9122   23.1647 C.ar    1  lig        -0.1787
     16 C5         10.0974    7.9168   22.2679 C.ar    1  lig        -0.1394
     17 C6         11.3987   10.3073   21.8582 C.ar    1  lig         0.1292
     18 C7          7.4011    7.2770   21.1322 C.2     1  lig         0.9321
     19 C8          9.3784    6.5993   22.4869 C.3     1  lig        -0.0452
     20 C9          7.8514    6.6585   22.4358 C.3     1  lig        -0.0740
     21 N1          7.3483    5.2937   22.5877 N.4     1  lig        -0.8252
     22 O1          7.2924    8.5010   21.1566 O.co2   1  lig        -0.7573
     23 O2          7.1231    6.6017   20.0999 O.co2   1  lig        -0.7573
     24 O3         12.0331   11.3821   21.6062 O.3     1  lig        -0.4913
@<TRIPOS>BOND
     1     1    12    1
     2     2    13    1
     3     3    14    1
     4     4    15    1
     5     5    19    1
     6     6    19    1
     7     7    20    1
     8     8    21    1
     9     9    21    1
    10    10    21    1
    11    11    24    1
    12    12    14   ar
    13    12    16   ar
    14    13    15   ar
    15    13    16   ar
    16    14    17   ar
    17    15    17   ar
    18    16    19    1
    19    17    24    1
    20    18    20    1
    21    18    22    1
    22    18    23    1
    23    19    20    1
    24    20    21    1
@<TRIPOS>SUBSTRUCTURE
     1 lig         1 TEMP              0 ****  ****    0 ROOT


########## Name:		ligand
########## HA_RMSDs:		10.3349
########## HA_RMSDh:		10.3058
########## HA_RMSDm:		8.5189
########## Cluster Size:	1
##########    Grid Score:          -18.821243
##########      Grid_vdw:          -13.828465
##########       Grid_es:           -4.992778
##########    Int_energy:            2.408177

@<TRIPOS>MOLECULE
ligand
 24 24 1 0 0
SMALL
No Charge or Current Charge


@<TRIPOS>ATOM
      1 H1         17.6964   16.6512   27.2331 H       1  lig         0.1340
      2 H2         14.6125   13.8719   28.2237 H       1  lig         0.1340
      3 H3         16.1738   18.4782   27.7744 H       1  lig         0.1475
      4 H4         13.0537   15.7128   28.7241 H       1  lig         0.1475
      5 H5         17.8541   13.8759   28.2170 H       1  lig         0.0877
      6 H6         16.6461   13.0592   27.2765 H       1  lig         0.0877
      7 H7         18.5459   15.1556   26.1091 H       1  lig         0.0966
      8 H8         16.4298   14.8274   24.9254 H       1  lig         0.4431
      9 H9         17.6532   14.1584   24.0262 H       1  lig         0.4431
     10 H10        16.6582   13.1740   24.9292 H       1  lig         0.4431
     11 H11        12.8434   17.9376   28.4913 H       1  lig         0.4214
     12 C1         16.6806   16.4321   27.5524 C.ar    1  lig        -0.0999
     13 C2         14.9491   14.9005   28.1168 C.ar    1  lig        -0.0999
     14 C3         15.8264   17.4545   27.8618 C.ar    1  lig        -0.1787
     15 C4         14.0653   15.9260   28.3935 C.ar    1  lig        -0.1787
     16 C5         16.2427   15.1489   27.6727 C.ar    1  lig        -0.1394
     17 C6         14.5309   17.2271   28.2440 C.ar    1  lig         0.1292
     18 C7         19.1279   13.1294   26.0589 C.2     1  lig         0.9321
     19 C8         17.1905   14.0081   27.3545 C.3     1  lig        -0.0452
     20 C9         18.0472   14.1853   26.1004 C.3     1  lig        -0.0740
     21 N1         17.1610   14.0966   24.9405 N.4     1  lig        -0.8252
     22 O1         18.7420   11.9912   26.3162 O.co2   1  lig        -0.7573
     23 O2         20.3418   13.3841   25.8131 O.co2   1  lig        -0.7573
     24 O3         13.8000   18.2292   28.5316 O.3     1  lig        -0.4913
@<TRIPOS>BOND
     1     1    12    1
     2     2    13    1
     3     3    14    1
     4     4    15    1
     5     5    19    1
     6     6    19    1
     7     7    20    1
     8     8    21    1
     9     9    21    1
    10    10    21    1
    11    11    24    1
    12    12    14   ar
    13    12    16   ar
    14    13    15   ar
    15    13    16   ar
    16    14    17   ar
    17    15    17   ar
    18    16    19    1
    19    17    24    1
    20    18    20    1
    21    18    22    1
    22    18    23    1
    23    19    20    1
    24    20    21    1
@<TRIPOS>SUBSTRUCTURE
     1 lig         1 TEMP              0 ****  ****    0 ROOT


########## Name:		ligand
########## HA_RMSDs:		10.5304
########## HA_RMSDh:		10.4444
########## HA_RMSDm:		7.9599
########## Cluster Size:	1
##########    Grid Score:          -18.820635
##########      Grid_vdw:          -14.858571
##########       Grid_es:           -3.962063
##########    Int_energy:            1.379916

@<TRIPOS>MOLECULE
ligand
 24 24 1 0 0
SMALL
No Charge or Current Charge


@<TRIPOS>ATOM
      1 H1         17.5059   13.7319   24.6609 H       1  lig         0.1340
      2 H2         13.8448   12.9828   26.7226 H       1  lig         0.1340
      3 H3         16.6290   12.5164   22.7367 H       1  lig         0.1475
      4 H4         12.9722   11.7111   24.8015 H       1  lig         0.1475
      5 H5         15.4877   14.1968   27.7781 H       1  lig         0.0877
      6 H6         17.1066   13.6477   27.4816 H       1  lig         0.0877
      7 H7         16.8179   15.7910   25.6624 H       1  lig         0.0966
      8 H8         18.7425   15.2068   27.0557 H       1  lig         0.4431
      9 H9         18.3631   16.8016   27.3120 H       1  lig         0.4431
     10 H10        17.9107   15.6545   28.4318 H       1  lig         0.4431
     11 H11        13.9204   10.5748   22.8811 H       1  lig         0.4214
     12 C1         16.5142   13.2890   24.7071 C.ar    1  lig        -0.0999
     13 C2         14.4620   12.8659   25.8349 C.ar    1  lig        -0.0999
     14 C3         16.0179   12.6115   23.6276 C.ar    1  lig        -0.1787
     15 C4         13.9663   12.1452   24.7652 C.ar    1  lig        -0.1787
     16 C5         15.7396   13.4136   25.8194 C.ar    1  lig        -0.1394
     17 C6         14.7846   12.0160   23.6491 C.ar    1  lig         0.1292
     18 C7         15.6587   16.5875   27.2336 C.2     1  lig         0.9321
     19 C8         16.2725   14.1836   27.0128 C.3     1  lig        -0.0452
     20 C9         16.7095   15.6222   26.7348 C.3     1  lig        -0.0740
     21 N1         17.9949   15.8327   27.3997 N.4     1  lig        -0.8252
     22 O1         15.0193   17.1511   26.3481 O.co2   1  lig        -0.7573
     23 O2         15.4624   16.8316   28.4586 O.co2   1  lig        -0.7573
     24 O3         14.3837   11.4162   22.5999 O.3     1  lig        -0.4913
@<TRIPOS>BOND
     1     1    12    1
     2     2    13    1
     3     3    14    1
     4     4    15    1
     5     5    19    1
     6     6    19    1
     7     7    20    1
     8     8    21    1
     9     9    21    1
    10    10    21    1
    11    11    24    1
    12    12    14   ar
    13    12    16   ar
    14    13    15   ar
    15    13    16   ar
    16    14    17   ar
    17    15    17   ar
    18    16    19    1
    19    17    24    1
    20    18    20    1
    21    18    22    1
    22    18    23    1
    23    19    20    1
    24    20    21    1
@<TRIPOS>SUBSTRUCTURE
     1 lig         1 TEMP              0 ****  ****    0 ROOT


########## Name:		ligand
########## HA_RMSDs:		12.8588
########## HA_RMSDh:		12.7795
########## HA_RMSDm:		10.8082
########## Cluster Size:	1
##########    Grid Score:          -18.815168
##########      Grid_vdw:          -19.457731
##########       Grid_es:            0.642563
##########    Int_energy:            4.001844

@<TRIPOS>MOLECULE
ligand
 24 24 1 0 0
SMALL
No Charge or Current Charge


@<TRIPOS>ATOM
      1 H1          9.5106    8.0840   19.5857 H       1  lig         0.1340
      2 H2          9.4993   10.2998   23.2334 H       1  lig         0.1340
      3 H3          7.3599    7.1169   20.2087 H       1  lig         0.1475
      4 H4          7.3513    9.2889   23.8919 H       1  lig         0.1475
      5 H5         11.1219    9.6849   19.9166 H       1  lig         0.0877
      6 H6         10.9478   10.9436   21.0981 H       1  lig         0.0877
      7 H7         12.9715    8.9971   21.0327 H       1  lig         0.0966
      8 H8         11.3802    7.4079   21.9966 H       1  lig         0.4431
      9 H9         12.5237    7.7778   23.1405 H       1  lig         0.4431
     10 H10        11.0160    8.4812   23.2218 H       1  lig         0.4431
     11 H11         5.8360    7.8460   23.2525 H       1  lig         0.4214
     12 C1          9.0517    8.3515   20.5342 C.ar    1  lig        -0.0999
     13 C2          9.0210    9.5828   22.5702 C.ar    1  lig        -0.0999
     14 C3          7.8432    7.8148   20.8836 C.ar    1  lig        -0.1787
     15 C4          7.8197    9.0163   22.9515 C.ar    1  lig        -0.1787
     16 C5          9.6497    9.2342   21.3804 C.ar    1  lig        -0.1394
     17 C6          7.2396    8.1033   22.0788 C.ar    1  lig         0.1292
     18 C7         12.8092   10.4183   22.5822 C.2     1  lig         0.9321
     19 C8         10.9788    9.8526   20.9905 C.3     1  lig        -0.0452
     20 C9         12.2035    9.3218   21.7363 C.3     1  lig        -0.0740
     21 N1         11.7704    8.1879   22.5519 N.4     1  lig        -0.8252
     22 O1         12.0392   10.9205   23.3979 O.co2   1  lig        -0.7573
     23 O2         14.0007   10.8211   22.4518 O.co2   1  lig        -0.7573
     24 O3          6.1068    7.5775   22.3271 O.3     1  lig        -0.4913
@<TRIPOS>BOND
     1     1    12    1
     2     2    13    1
     3     3    14    1
     4     4    15    1
     5     5    19    1
     6     6    19    1
     7     7    20    1
     8     8    21    1
     9     9    21    1
    10    10    21    1
    11    11    24    1
    12    12    14   ar
    13    12    16   ar
    14    13    15   ar
    15    13    16   ar
    16    14    17   ar
    17    15    17   ar
    18    16    19    1
    19    17    24    1
    20    18    20    1
    21    18    22    1
    22    18    23    1
    23    19    20    1
    24    20    21    1
@<TRIPOS>SUBSTRUCTURE
     1 lig         1 TEMP              0 ****  ****    0 ROOT


########## Name:		ligand
########## HA_RMSDs:		13.8215
########## HA_RMSDh:		13.7817
########## HA_RMSDm:		11.5704
########## Cluster Size:	1
##########    Grid Score:          -18.808765
##########      Grid_vdw:          -15.885609
##########       Grid_es:           -2.923156
##########    Int_energy:            1.482290

@<TRIPOS>MOLECULE
ligand
 24 24 1 0 0
SMALL
No Charge or Current Charge


@<TRIPOS>ATOM
      1 H1         10.9014   13.3480   25.6984 H       1  lig         0.1340
      2 H2          8.1937   10.6726   27.6286 H       1  lig         0.1340
      3 H3         11.8562   13.8947   27.8752 H       1  lig         0.1475
      4 H4          9.1198   11.2575   29.8352 H       1  lig         0.1475
      5 H5          7.8026   11.7844   25.2348 H       1  lig         0.0877
      6 H6          9.2221   12.3433   24.4082 H       1  lig         0.0877
      7 H7          9.6159    9.6161   25.4797 H       1  lig         0.0966
      8 H8         10.9880   10.7344   23.7904 H       1  lig         0.4431
      9 H9         10.2966    9.3882   23.1101 H       1  lig         0.4431
     10 H10         9.6631   10.8947   22.7880 H       1  lig         0.4431
     11 H11        10.3925   13.2408   30.7239 H       1  lig         0.4214
     12 C1         10.4979   12.8880   26.5969 C.ar    1  lig        -0.0999
     13 C2          9.0027   11.3964   27.6933 C.ar    1  lig        -0.0999
     14 C3         11.0350   13.1886   27.8183 C.ar    1  lig        -0.1787
     15 C4          9.5109   11.7228   28.9360 C.ar    1  lig        -0.1787
     16 C5          9.4736   11.9940   26.5299 C.ar    1  lig        -0.1394
     17 C6         10.5431   12.6527   28.9789 C.ar    1  lig         0.1292
     18 C7          7.8652    9.5387   24.3066 C.2     1  lig         0.9321
     19 C8          8.8874   11.6367   25.1773 C.3     1  lig        -0.0452
     20 C9          9.1624   10.2144   24.6880 C.3     1  lig        -0.0740
     21 N1         10.0785   10.3046   23.5516 N.4     1  lig        -0.8252
     22 O1          7.2547   10.0828   23.3891 O.co2   1  lig        -0.7573
     23 O2          7.4137    8.5148   24.8952 O.co2   1  lig        -0.7573
     24 O3         11.1056   12.9677   30.0769 O.3     1  lig        -0.4913
@<TRIPOS>BOND
     1     1    12    1
     2     2    13    1
     3     3    14    1
     4     4    15    1
     5     5    19    1
     6     6    19    1
     7     7    20    1
     8     8    21    1
     9     9    21    1
    10    10    21    1
    11    11    24    1
    12    12    14   ar
    13    12    16   ar
    14    13    15   ar
    15    13    16   ar
    16    14    17   ar
    17    15    17   ar
    18    16    19    1
    19    17    24    1
    20    18    20    1
    21    18    22    1
    22    18    23    1
    23    19    20    1
    24    20    21    1
@<TRIPOS>SUBSTRUCTURE
     1 lig         1 TEMP              0 ****  ****    0 ROOT


########## Name:		ligand
########## HA_RMSDs:		13.9659
########## HA_RMSDh:		13.9124
########## HA_RMSDm:		9.9402
########## Cluster Size:	1
##########    Grid Score:          -18.797264
##########      Grid_vdw:          -14.693723
##########       Grid_es:           -4.103541
##########    Int_energy:            5.339501

@<TRIPOS>MOLECULE
ligand
 24 24 1 0 0
SMALL
No Charge or Current Charge


@<TRIPOS>ATOM
      1 H1         15.4064   14.0172   29.9778 H       1  lig         0.1340
      2 H2         17.4624   17.7025   30.6153 H       1  lig         0.1340
      3 H3         15.0005   14.6850   27.6674 H       1  lig         0.1475
      4 H4         17.0127   18.4050   28.2972 H       1  lig         0.1475
      5 H5         17.0384   14.3640   31.8655 H       1  lig         0.0877
      6 H6         17.5638   15.9618   32.2916 H       1  lig         0.0877
      7 H7         15.8111   15.1991   33.8421 H       1  lig         0.0966
      8 H8         14.6818   13.7104   32.2625 H       1  lig         0.4431
      9 H9         13.5669   14.7671   32.8897 H       1  lig         0.4431
     10 H10        14.1733   15.0182   31.3588 H       1  lig         0.4431
     11 H11        16.3571   17.5560   26.3366 H       1  lig         0.4214
     12 C1         15.7580   14.9832   29.6243 C.ar    1  lig        -0.0999
     13 C2         16.9065   17.0408   29.9552 C.ar    1  lig        -0.0999
     14 C3         15.5365   15.3579   28.3277 C.ar    1  lig        -0.1787
     15 C4         16.6536   17.4467   28.6588 C.ar    1  lig        -0.1787
     16 C5         16.4394   15.8272   30.4466 C.ar    1  lig        -0.1394
     17 C6         15.9390   16.5751   27.8454 C.ar    1  lig         0.1292
     18 C7         15.1219   16.9901   32.9679 C.2     1  lig         0.9321
     19 C8         16.7103   15.4099   31.8795 C.3     1  lig        -0.0452
     20 C9         15.5313   15.5403   32.8444 C.3     1  lig        -0.0740
     21 N1         14.4409   14.7137   32.3281 N.4     1  lig        -0.8252
     22 O1         14.5339   17.4416   31.9876 O.co2   1  lig        -0.7573
     23 O2         15.3842   17.7044   33.9778 O.co2   1  lig        -0.7573
     24 O3         15.7114   16.8468   26.6225 O.3     1  lig        -0.4913
@<TRIPOS>BOND
     1     1    12    1
     2     2    13    1
     3     3    14    1
     4     4    15    1
     5     5    19    1
     6     6    19    1
     7     7    20    1
     8     8    21    1
     9     9    21    1
    10    10    21    1
    11    11    24    1
    12    12    14   ar
    13    12    16   ar
    14    13    15   ar
    15    13    16   ar
    16    14    17   ar
    17    15    17   ar
    18    16    19    1
    19    17    24    1
    20    18    20    1
    21    18    22    1
    22    18    23    1
    23    19    20    1
    24    20    21    1
@<TRIPOS>SUBSTRUCTURE
     1 lig         1 TEMP              0 ****  ****    0 ROOT


########## Name:		ligand
########## HA_RMSDs:		14.0376
########## HA_RMSDh:		13.9852
########## HA_RMSDm:		11.7110
########## Cluster Size:	1
##########    Grid Score:          -18.780079
##########      Grid_vdw:          -16.154697
##########       Grid_es:           -2.625382
##########    Int_energy:            3.856801

@<TRIPOS>MOLECULE
ligand
 24 24 1 0 0
SMALL
No Charge or Current Charge


@<TRIPOS>ATOM
      1 H1          8.0710    7.6135   21.9116 H       1  lig         0.1340
      2 H2          9.4478   11.3248   23.5075 H       1  lig         0.1340
      3 H3         10.0513    7.5316   20.4902 H       1  lig         0.1475
      4 H4         11.4249   11.2731   22.0387 H       1  lig         0.1475
      5 H5          7.0624   10.5735   23.7234 H       1  lig         0.0877
      6 H6          6.5663    8.9855   23.2306 H       1  lig         0.0877
      7 H7          7.0486    9.6358   25.8177 H       1  lig         0.0966
      8 H8          9.4129   10.0700   25.3610 H       1  lig         0.4431
      9 H9          9.2955    8.7403   26.3464 H       1  lig         0.4431
     10 H10         9.5933    8.5396   24.7199 H       1  lig         0.4431
     11 H11        11.8740   10.0493   19.7661 H       1  lig         0.4214
     12 C1          8.7943    8.4243   21.9446 C.ar    1  lig        -0.0999
     13 C2          9.5847   10.4887   22.8257 C.ar    1  lig        -0.0999
     14 C3          9.9084    8.3783   21.1526 C.ar    1  lig        -0.1787
     15 C4         10.6934   10.4721   22.0012 C.ar    1  lig        -0.1787
     16 C5          8.6244    9.4846   22.7811 C.ar    1  lig        -0.1394
     17 C6         10.8336    9.3883   21.1424 C.ar    1  lig         0.1292
     18 C7          7.0934    7.6101   25.2334 C.2     1  lig         0.9321
     19 C8          7.4037    9.5326   23.6804 C.3     1  lig        -0.0452
     20 C9          7.6091    9.0254   25.1081 C.3     1  lig        -0.0740
     21 N1          9.0382    9.1076   25.4078 N.4     1  lig        -0.8252
     22 O1          7.7444    6.7710   24.6147 O.co2   1  lig        -0.7573
     23 O2          6.0584    7.3014   25.8909 O.co2   1  lig        -0.7573
     24 O3         11.8537    9.2670   20.3900 O.3     1  lig        -0.4913
@<TRIPOS>BOND
     1     1    12    1
     2     2    13    1
     3     3    14    1
     4     4    15    1
     5     5    19    1
     6     6    19    1
     7     7    20    1
     8     8    21    1
     9     9    21    1
    10    10    21    1
    11    11    24    1
    12    12    14   ar
    13    12    16   ar
    14    13    15   ar
    15    13    16   ar
    16    14    17   ar
    17    15    17   ar
    18    16    19    1
    19    17    24    1
    20    18    20    1
    21    18    22    1
    22    18    23    1
    23    19    20    1
    24    20    21    1
@<TRIPOS>SUBSTRUCTURE
     1 lig         1 TEMP              0 ****  ****    0 ROOT


########## Name:		ligand
########## HA_RMSDs:		12.1509
########## HA_RMSDh:		12.0751
########## HA_RMSDm:		10.2671
########## Cluster Size:	1
##########    Grid Score:          -18.759880
##########      Grid_vdw:          -15.133136
##########       Grid_es:           -3.626743
##########    Int_energy:            3.197454

@<TRIPOS>MOLECULE
ligand
 24 24 1 0 0
SMALL
No Charge or Current Charge


@<TRIPOS>ATOM
      1 H1          8.4084    8.7588   23.3692 H       1  lig         0.1340
      2 H2         11.7055   11.2032   24.5394 H       1  lig         0.1340
      3 H3          7.0327    9.8746   25.0459 H       1  lig         0.1475
      4 H4         10.3355   12.2995   26.2687 H       1  lig         0.1475
      5 H5         11.2686    8.2221   23.1882 H       1  lig         0.0877
      6 H6         10.4224    9.0233   21.9027 H       1  lig         0.0877
      7 H7         12.8198   10.2918   23.3145 H       1  lig         0.0966
      8 H8         11.3022   11.7769   22.0987 H       1  lig         0.4431
      9 H9         12.7203   11.6498   21.2467 H       1  lig         0.4431
     10 H10        11.3803   10.7922   20.7533 H       1  lig         0.4431
     11 H11         6.8929   11.7217   26.1985 H       1  lig         0.4214
     12 C1          8.8443    9.5279   24.0017 C.ar    1  lig        -0.0999
     13 C2         10.6669   10.9065   24.6654 C.ar    1  lig        -0.0999
     14 C3          8.0738   10.1591   24.9390 C.ar    1  lig        -0.1787
     15 C4          9.9086   11.5226   25.6425 C.ar    1  lig        -0.1787
     16 C5         10.1479    9.8951   23.8652 C.ar    1  lig        -0.1394
     17 C6          8.5861   11.1158   25.7746 C.ar    1  lig         0.1292
     18 C7         13.2143    9.0169   21.6818 C.2     1  lig         0.9321
     19 C8         11.0038    9.2172   22.8122 C.3     1  lig        -0.0452
     20 C9         12.2877    9.9518   22.4248 C.3     1  lig        -0.0740
     21 N1         11.9113   11.1028   21.6051 N.4     1  lig        -0.8252
     22 O1         13.8875    8.2832   22.4023 O.co2   1  lig        -0.7573
     23 O2         13.3243    9.0007   20.4222 O.co2   1  lig        -0.7573
     24 O3          7.8031   11.6706   26.6116 O.3     1  lig        -0.4913
@<TRIPOS>BOND
     1     1    12    1
     2     2    13    1
     3     3    14    1
     4     4    15    1
     5     5    19    1
     6     6    19    1
     7     7    20    1
     8     8    21    1
     9     9    21    1
    10    10    21    1
    11    11    24    1
    12    12    14   ar
    13    12    16   ar
    14    13    15   ar
    15    13    16   ar
    16    14    17   ar
    17    15    17   ar
    18    16    19    1
    19    17    24    1
    20    18    20    1
    21    18    22    1
    22    18    23    1
    23    19    20    1
    24    20    21    1
@<TRIPOS>SUBSTRUCTURE
     1 lig         1 TEMP              0 ****  ****    0 ROOT


########## Name:		ligand
########## HA_RMSDs:		12.9806
########## HA_RMSDh:		12.9236
########## HA_RMSDm:		8.7798
########## Cluster Size:	1
##########    Grid Score:          -18.758839
##########      Grid_vdw:          -19.441750
##########       Grid_es:            0.682911
##########    Int_energy:            3.651810

@<TRIPOS>MOLECULE
ligand
 24 24 1 0 0
SMALL
No Charge or Current Charge


@<TRIPOS>ATOM
      1 H1         15.9430   18.7719   29.1113 H       1  lig         0.1340
      2 H2         13.7101   15.1361   29.0092 H       1  lig         0.1340
      3 H3         16.7506   18.2968   26.8594 H       1  lig         0.1475
      4 H4         14.5613   14.6254   26.7545 H       1  lig         0.1475
      5 H5         15.0397   17.8591   31.1247 H       1  lig         0.0877
      6 H6         13.4008   17.9325   30.5596 H       1  lig         0.0877
      7 H7         13.2866   15.3645   30.9030 H       1  lig         0.0966
      8 H8         12.3389   17.0247   32.4303 H       1  lig         0.4431
      9 H9         12.9767   15.7806   33.3239 H       1  lig         0.4431
     10 H10        13.8179   17.2112   33.1812 H       1  lig         0.4431
     11 H11        16.7131   17.0832   25.2447 H       1  lig         0.4214
     12 C1         15.6377   17.8575   28.6090 C.ar    1  lig        -0.0999
     13 C2         14.3951   15.8297   28.5273 C.ar    1  lig        -0.0999
     14 C3         16.0848   17.5912   27.3441 C.ar    1  lig        -0.1787
     15 C4         14.8722   15.5311   27.2654 C.ar    1  lig        -0.1787
     16 C5         14.7948   16.9732   29.2093 C.ar    1  lig        -0.1394
     17 C6         15.7468   16.4405   26.6824 C.ar    1  lig         0.1292
     18 C7         15.1841   15.2982   31.8206 C.2     1  lig         0.9321
     19 C8         14.2751   17.2718   30.6028 C.3     1  lig        -0.0452
     20 C9         13.9259   16.0530   31.4576 C.3     1  lig        -0.0740
     21 N1         13.2214   16.5312   32.6465 N.4     1  lig        -0.8252
     22 O1         15.5061   14.4239   31.0190 O.co2   1  lig        -0.7573
     23 O2         15.8459   15.5139   32.8762 O.co2   1  lig        -0.7573
     24 O3         16.1890   16.2699   25.5005 O.3     1  lig        -0.4913
@<TRIPOS>BOND
     1     1    12    1
     2     2    13    1
     3     3    14    1
     4     4    15    1
     5     5    19    1
     6     6    19    1
     7     7    20    1
     8     8    21    1
     9     9    21    1
    10    10    21    1
    11    11    24    1
    12    12    14   ar
    13    12    16   ar
    14    13    15   ar
    15    13    16   ar
    16    14    17   ar
    17    15    17   ar
    18    16    19    1
    19    17    24    1
    20    18    20    1
    21    18    22    1
    22    18    23    1
    23    19    20    1
    24    20    21    1
@<TRIPOS>SUBSTRUCTURE
     1 lig         1 TEMP              0 ****  ****    0 ROOT


########## Name:		ligand
########## HA_RMSDs:		12.6823
########## HA_RMSDh:		12.6574
########## HA_RMSDm:		10.4507
########## Cluster Size:	1
##########    Grid Score:          -18.755566
##########      Grid_vdw:          -17.486607
##########       Grid_es:           -1.268959
##########    Int_energy:            3.310053

@<TRIPOS>MOLECULE
ligand
 24 24 1 0 0
SMALL
No Charge or Current Charge


@<TRIPOS>ATOM
      1 H1         10.5648   12.1286   25.2622 H       1  lig         0.1340
      2 H2          9.0301    9.9536   21.9260 H       1  lig         0.1340
      3 H3         12.7249   12.2592   24.1372 H       1  lig         0.1475
      4 H4         11.2228   10.0385   20.8062 H       1  lig         0.1475
      5 H5          8.2911   11.7334   25.1223 H       1  lig         0.0877
      6 H6          7.5133   11.2041   23.6644 H       1  lig         0.0877
      7 H7          7.1347    9.7247   25.7087 H       1  lig         0.0966
      8 H8          9.4412    9.8309   26.5183 H       1  lig         0.4431
      9 H9          9.0497    8.2445   26.2301 H       1  lig         0.4431
     10 H10         9.9861    9.0768   25.1325 H       1  lig         0.4431
     11 H11        13.2221   10.9085   20.9712 H       1  lig         0.4214
     12 C1         10.6972   11.6613   24.2896 C.ar    1  lig        -0.0999
     13 C2          9.8607   10.4565   22.4158 C.ar    1  lig        -0.0999
     14 C3         11.9059   11.7377   23.6541 C.ar    1  lig        -0.1787
     15 C4         11.0883   10.4930   21.7826 C.ar    1  lig        -0.1787
     16 C5          9.6698   11.0138   23.6749 C.ar    1  lig        -0.1394
     17 C6         12.1261   11.1432   22.4400 C.ar    1  lig         0.1292
     18 C7          7.5733    8.5986   23.9806 C.2     1  lig         0.9321
     19 C8          8.3190   10.9444   24.3617 C.3     1  lig        -0.0452
     20 C9          7.9791    9.6105   25.0275 C.3     1  lig        -0.0740
     21 N1          9.1586    9.1725   25.7729 N.4     1  lig        -0.8252
     22 O1          8.4764    7.8493   23.6151 O.co2   1  lig        -0.7573
     23 O2          6.4112    8.5356   23.4862 O.co2   1  lig        -0.7573
     24 O3         13.2733   11.2712   21.9026 O.3     1  lig        -0.4913
@<TRIPOS>BOND
     1     1    12    1
     2     2    13    1
     3     3    14    1
     4     4    15    1
     5     5    19    1
     6     6    19    1
     7     7    20    1
     8     8    21    1
     9     9    21    1
    10    10    21    1
    11    11    24    1
    12    12    14   ar
    13    12    16   ar
    14    13    15   ar
    15    13    16   ar
    16    14    17   ar
    17    15    17   ar
    18    16    19    1
    19    17    24    1
    20    18    20    1
    21    18    22    1
    22    18    23    1
    23    19    20    1
    24    20    21    1
@<TRIPOS>SUBSTRUCTURE
     1 lig         1 TEMP              0 ****  ****    0 ROOT


########## Name:		ligand
########## HA_RMSDs:		15.2167
########## HA_RMSDh:		15.1882
########## HA_RMSDm:		13.0327
########## Cluster Size:	1
##########    Grid Score:          -18.755024
##########      Grid_vdw:          -15.224644
##########       Grid_es:           -3.530381
##########    Int_energy:            1.654032

@<TRIPOS>MOLECULE
ligand
 24 24 1 0 0
SMALL
No Charge or Current Charge


@<TRIPOS>ATOM
      1 H1         21.7878    4.7710   12.0956 H       1  lig         0.1340
      2 H2         25.9101    5.6946   12.7039 H       1  lig         0.1340
      3 H3         21.2641    7.1449   12.2930 H       1  lig         0.1475
      4 H4         25.3821    8.0879   12.9541 H       1  lig         0.1475
      5 H5         23.4536    3.1555   11.6220 H       1  lig         0.0877
      6 H6         25.1560    3.4732   11.7292 H       1  lig         0.0877
      7 H7         23.5087    3.1548   14.2716 H       1  lig         0.0966
      8 H8         25.7941    4.0211   14.3866 H       1  lig         0.4431
      9 H9         25.7692    2.4944   15.0359 H       1  lig         0.4431
     10 H10        26.3537    2.7268   13.4936 H       1  lig         0.4431
     11 H11        21.9147    9.0175   12.7412 H       1  lig         0.4214
     12 C1         22.5833    5.4860   12.2899 C.ar    1  lig        -0.0999
     13 C2         24.8770    6.0247   12.6236 C.ar    1  lig        -0.0999
     14 C3         22.2932    6.8184   12.3956 C.ar    1  lig        -0.1787
     15 C4         24.5903    7.3682   12.7720 C.ar    1  lig        -0.1787
     16 C5         23.8777    5.0823   12.4100 C.ar    1  lig        -0.1394
     17 C6         23.2587    7.7520   12.6644 C.ar    1  lig         0.1292
     18 C7         24.0191    1.3515   13.3049 C.2     1  lig         0.9321
     19 C8         24.2120    3.6092   12.2706 C.3     1  lig        -0.0452
     20 C9         24.2779    2.8158   13.5761 C.3     1  lig        -0.0740
     21 N1         25.6010    3.0309   14.1606 N.4     1  lig        -0.8252
     22 O1         22.8508    1.0787   13.0378 O.co2   1  lig        -0.7573
     23 O2         24.9143    0.4612   13.3749 O.co2   1  lig        -0.7573
     24 O3         22.9147    8.9761   12.7324 O.3     1  lig        -0.4913
@<TRIPOS>BOND
     1     1    12    1
     2     2    13    1
     3     3    14    1
     4     4    15    1
     5     5    19    1
     6     6    19    1
     7     7    20    1
     8     8    21    1
     9     9    21    1
    10    10    21    1
    11    11    24    1
    12    12    14   ar
    13    12    16   ar
    14    13    15   ar
    15    13    16   ar
    16    14    17   ar
    17    15    17   ar
    18    16    19    1
    19    17    24    1
    20    18    20    1
    21    18    22    1
    22    18    23    1
    23    19    20    1
    24    20    21    1
@<TRIPOS>SUBSTRUCTURE
     1 lig         1 TEMP              0 ****  ****    0 ROOT


########## Name:		ligand
########## HA_RMSDs:		12.5628
########## HA_RMSDh:		12.5456
########## HA_RMSDm:		9.4372
########## Cluster Size:	1
##########    Grid Score:          -18.726498
##########      Grid_vdw:          -14.207213
##########       Grid_es:           -4.519284
##########    Int_energy:            3.006666

@<TRIPOS>MOLECULE
ligand
 24 24 1 0 0
SMALL
No Charge or Current Charge


@<TRIPOS>ATOM
      1 H1         16.1816   16.0105   31.3384 H       1  lig         0.1340
      2 H2         17.7620   16.3819   27.3912 H       1  lig         0.1340
      3 H3         14.1807   17.2000   30.6102 H       1  lig         0.1475
      4 H4         15.7656   17.6275   26.6619 H       1  lig         0.1475
      5 H5         18.0250   14.5939   30.5445 H       1  lig         0.0877
      6 H6         18.8003   14.8563   29.0146 H       1  lig         0.0877
      7 H7         20.3236   15.6319   30.7138 H       1  lig         0.0966
      8 H8         18.6385   15.8938   32.4683 H       1  lig         0.4431
      9 H9         19.5254   17.2925   32.3676 H       1  lig         0.4431
     10 H10        18.0044   17.2281   31.6914 H       1  lig         0.4431
     11 H11        13.0896   17.9012   29.0151 H       1  lig         0.4214
     12 C1         16.1059   16.3647   30.3134 C.ar    1  lig        -0.0999
     13 C2         16.9643   16.5768   28.1041 C.ar    1  lig        -0.0999
     14 C3         14.9827   17.0271   29.9009 C.ar    1  lig        -0.1787
     15 C4         15.8516   17.2820   27.6872 C.ar    1  lig        -0.1787
     16 C5         17.1057   16.1421   29.4169 C.ar    1  lig        -0.1394
     17 C6         14.8538   17.5131   28.6268 C.ar    1  lig         0.1292
     18 C7         19.8119   17.3917   29.6706 C.2     1  lig         0.9321
     19 C8         18.3451   15.3875   29.8592 C.3     1  lig        -0.0452
     20 C9         19.4227   16.2247   30.5489 C.3     1  lig        -0.0740
     21 N1         18.8844   16.6716   31.8331 N.4     1  lig        -0.8252
     22 O1         20.4794   17.0898   28.6837 O.co2   1  lig        -0.7573
     23 O2         19.5113   18.5916   29.9328 O.co2   1  lig        -0.7573
     24 O3         13.7716   18.1055   28.3117 O.3     1  lig        -0.4913
@<TRIPOS>BOND
     1     1    12    1
     2     2    13    1
     3     3    14    1
     4     4    15    1
     5     5    19    1
     6     6    19    1
     7     7    20    1
     8     8    21    1
     9     9    21    1
    10    10    21    1
    11    11    24    1
    12    12    14   ar
    13    12    16   ar
    14    13    15   ar
    15    13    16   ar
    16    14    17   ar
    17    15    17   ar
    18    16    19    1
    19    17    24    1
    20    18    20    1
    21    18    22    1
    22    18    23    1
    23    19    20    1
    24    20    21    1
@<TRIPOS>SUBSTRUCTURE
     1 lig         1 TEMP              0 ****  ****    0 ROOT


########## Name:		ligand
########## HA_RMSDs:		12.5001
########## HA_RMSDh:		12.4452
########## HA_RMSDm:		10.1820
########## Cluster Size:	1
##########    Grid Score:          -18.707996
##########      Grid_vdw:          -18.957539
##########       Grid_es:            0.249542
##########    Int_energy:            1.277504

@<TRIPOS>MOLECULE
ligand
 24 24 1 0 0
SMALL
No Charge or Current Charge


@<TRIPOS>ATOM
      1 H1         12.6500   11.9847   24.1684 H       1  lig         0.1340
      2 H2          9.0751   10.4068   22.4522 H       1  lig         0.1340
      3 H3         13.9449   10.7809   22.4883 H       1  lig         0.1475
      4 H4         10.3794    9.1486   20.7835 H       1  lig         0.1475
      5 H5         10.3509   13.0416   24.4907 H       1  lig         0.0877
      6 H6          8.9284   12.1124   24.1394 H       1  lig         0.0877
      7 H7         11.0006   11.4976   26.2997 H       1  lig         0.0966
      8 H8         10.1901    9.4580   25.2180 H       1  lig         0.4431
      9 H9          9.5059    9.5702   26.7254 H       1  lig         0.4431
     10 H10         8.6107    9.9730   25.3797 H       1  lig         0.4431
     11 H11        13.9609    9.4378   20.9682 H       1  lig         0.4214
     12 C1         12.1409   11.3623   23.4370 C.ar    1  lig        -0.0999
     13 C2         10.1603   10.4768   22.4594 C.ar    1  lig        -0.0999
     14 C3         12.8642   10.6904   22.4903 C.ar    1  lig        -0.1787
     15 C4         10.8833    9.7621   21.5236 C.ar    1  lig        -0.1787
     16 C5         10.7842   11.2529   23.4294 C.ar    1  lig        -0.1394
     17 C6         12.2679    9.8754   21.5650 C.ar    1  lig         0.1292
     18 C7          9.0902   12.2516   26.7780 C.2     1  lig         0.9321
     19 C8          9.9723   12.0132   24.4608 C.3     1  lig        -0.0452
     20 C9          9.9956   11.4415   25.8787 C.3     1  lig        -0.0740
     21 N1          9.5702   10.0445   25.8018 N.4     1  lig        -0.8252
     22 O1          9.6591   13.1343   27.4166 O.co2   1  lig        -0.7573
     23 O2          7.8511   12.0312   26.9000 O.co2   1  lig        -0.7573
     24 O3         13.0059    9.2951   20.7048 O.3     1  lig        -0.4913
@<TRIPOS>BOND
     1     1    12    1
     2     2    13    1
     3     3    14    1
     4     4    15    1
     5     5    19    1
     6     6    19    1
     7     7    20    1
     8     8    21    1
     9     9    21    1
    10    10    21    1
    11    11    24    1
    12    12    14   ar
    13    12    16   ar
    14    13    15   ar
    15    13    16   ar
    16    14    17   ar
    17    15    17   ar
    18    16    19    1
    19    17    24    1
    20    18    20    1
    21    18    22    1
    22    18    23    1
    23    19    20    1
    24    20    21    1
@<TRIPOS>SUBSTRUCTURE
     1 lig         1 TEMP              0 ****  ****    0 ROOT


########## Name:		ligand
########## HA_RMSDs:		13.3907
########## HA_RMSDh:		13.3547
########## HA_RMSDm:		11.1302
########## Cluster Size:	2
##########    Grid Score:          -18.696186
##########      Grid_vdw:          -19.282333
##########       Grid_es:            0.586148
##########    Int_energy:            2.267505

@<TRIPOS>MOLECULE
ligand
 24 24 1 0 0
SMALL
No Charge or Current Charge


@<TRIPOS>ATOM
      1 H1          7.6322    9.6977   23.5705 H       1  lig         0.1340
      2 H2          9.8699    8.1554   20.2797 H       1  lig         0.1340
      3 H3          5.9015    8.0379   23.1248 H       1  lig         0.1475
      4 H4          8.1030    6.5092   19.7930 H       1  lig         0.1475
      5 H5         10.0164   10.7170   21.3461 H       1  lig         0.0877
      6 H6          9.6404   10.7325   23.0399 H       1  lig         0.0877
      7 H7         11.4927    8.5753   21.9664 H       1  lig         0.0966
      8 H8         10.6632    8.5013   24.2671 H       1  lig         0.4431
      9 H9         12.2864    8.8436   24.2963 H       1  lig         0.4431
     10 H10        11.1798   10.0669   24.5276 H       1  lig         0.4431
     11 H11         5.4592    6.2428   22.1496 H       1  lig         0.4214
     12 C1          7.7448    9.0096   22.7365 C.ar    1  lig        -0.0999
     13 C2          8.9787    8.1290   20.9022 C.ar    1  lig        -0.0999
     14 C3          6.7784    8.0743   22.4876 C.ar    1  lig        -0.1787
     15 C4          7.9903    7.2064   20.6172 C.ar    1  lig        -0.1787
     16 C5          8.8477    9.0451   21.9396 C.ar    1  lig        -0.1394
     17 C6          6.8655    7.2038   21.4337 C.ar    1  lig         0.1292
     18 C7         12.3903   10.4764   22.1309 C.2     1  lig         0.9321
     19 C8          9.9357   10.0635   22.2225 C.3     1  lig        -0.0452
     20 C9         11.3184    9.4902   22.5346 C.3     1  lig        -0.0740
     21 N1         11.3656    9.1980   23.9668 N.4     1  lig        -0.8252
     22 O1         12.0910   11.6563   22.3007 O.co2   1  lig        -0.7573
     23 O2         13.4982   10.1336   21.6270 O.co2   1  lig        -0.7573
     24 O3          5.9341    6.3502   21.2752 O.3     1  lig        -0.4913
@<TRIPOS>BOND
     1     1    12    1
     2     2    13    1
     3     3    14    1
     4     4    15    1
     5     5    19    1
     6     6    19    1
     7     7    20    1
     8     8    21    1
     9     9    21    1
    10    10    21    1
    11    11    24    1
    12    12    14   ar
    13    12    16   ar
    14    13    15   ar
    15    13    16   ar
    16    14    17   ar
    17    15    17   ar
    18    16    19    1
    19    17    24    1
    20    18    20    1
    21    18    22    1
    22    18    23    1
    23    19    20    1
    24    20    21    1
@<TRIPOS>SUBSTRUCTURE
     1 lig         1 TEMP              0 ****  ****    0 ROOT


########## Name:		ligand
########## HA_RMSDs:		9.7497
########## HA_RMSDh:		9.7397
########## HA_RMSDm:		8.0141
########## Cluster Size:	1
##########    Grid Score:          -18.662878
##########      Grid_vdw:          -14.630761
##########       Grid_es:           -4.032116
##########    Int_energy:            2.604315

@<TRIPOS>MOLECULE
ligand
 24 24 1 0 0
SMALL
No Charge or Current Charge


@<TRIPOS>ATOM
      1 H1         14.3416   13.8627   27.5813 H       1  lig         0.1340
      2 H2         16.7867   16.6784   25.5055 H       1  lig         0.1340
      3 H3         13.9462   15.5360   29.3112 H       1  lig         0.1475
      4 H4         16.4320   18.3564   27.2740 H       1  lig         0.1475
      5 H5         14.9153   13.5551   25.2371 H       1  lig         0.0877
      6 H6         15.9969   14.6140   24.3891 H       1  lig         0.0877
      7 H7         17.0550   12.8900   26.6643 H       1  lig         0.0966
      8 H8         18.4364   14.6710   25.7120 H       1  lig         0.4431
      9 H9         19.0755   13.2055   25.2685 H       1  lig         0.4431
     10 H10        18.1765   14.0804   24.1727 H       1  lig         0.4431
     11 H11        14.3931   17.3648   30.0674 H       1  lig         0.4214
     12 C1         14.8103   14.8405   27.5051 C.ar    1  lig        -0.0999
     13 C2         16.1636   16.4288   26.3611 C.ar    1  lig        -0.0999
     14 C3         14.5859   15.7826   28.4709 C.ar    1  lig        -0.1787
     15 C4         15.9761   17.3744   27.3510 C.ar    1  lig        -0.1787
     16 C5         15.6066   15.1581   26.4477 C.ar    1  lig        -0.1394
     17 C6         15.1748   17.0186   28.4295 C.ar    1  lig         0.1292
     18 C7         16.7528   11.8671   24.8451 C.2     1  lig         0.9321
     19 C8         15.8420   14.1277   25.3598 C.3     1  lig        -0.0452
     20 C9         16.9920   13.1507   25.6068 C.3     1  lig        -0.0740
     21 N1         18.2299   13.8055   25.1854 N.4     1  lig        -0.8252
     22 O1         16.0921   11.9972   23.8169 O.co2   1  lig        -0.7573
     23 O2         17.1640   10.7375   25.2371 O.co2   1  lig        -0.7573
     24 O3         14.9053   17.8487   29.3567 O.3     1  lig        -0.4913
@<TRIPOS>BOND
     1     1    12    1
     2     2    13    1
     3     3    14    1
     4     4    15    1
     5     5    19    1
     6     6    19    1
     7     7    20    1
     8     8    21    1
     9     9    21    1
    10    10    21    1
    11    11    24    1
    12    12    14   ar
    13    12    16   ar
    14    13    15   ar
    15    13    16   ar
    16    14    17   ar
    17    15    17   ar
    18    16    19    1
    19    17    24    1
    20    18    20    1
    21    18    22    1
    22    18    23    1
    23    19    20    1
    24    20    21    1
@<TRIPOS>SUBSTRUCTURE
     1 lig         1 TEMP              0 ****  ****    0 ROOT


########## Name:		ligand
########## HA_RMSDs:		14.3359
########## HA_RMSDh:		14.3359
########## HA_RMSDm:		12.7601
########## Cluster Size:	1
##########    Grid Score:          -18.643326
##########      Grid_vdw:          -13.269201
##########       Grid_es:           -5.374124
##########    Int_energy:            2.223680

@<TRIPOS>MOLECULE
ligand
 24 24 1 0 0
SMALL
No Charge or Current Charge


@<TRIPOS>ATOM
      1 H1         26.0723    4.9149   15.7509 H       1  lig         0.1340
      2 H2         23.1397    7.1816   13.6350 H       1  lig         0.1340
      3 H3         27.5773    6.8314   15.6454 H       1  lig         0.1475
      4 H4         24.6729    9.1038   13.4810 H       1  lig         0.1475
      5 H5         24.1524    3.8702   15.0958 H       1  lig         0.0877
      6 H6         22.8226    4.8918   15.5414 H       1  lig         0.0877
      7 H7         22.3615    5.2470   13.0331 H       1  lig         0.0966
      8 H8         21.1485    3.6582   14.4443 H       1  lig         0.4431
      9 H9         21.3500    2.9891   12.9394 H       1  lig         0.4431
     10 H10        22.3282    2.5036   14.1972 H       1  lig         0.4431
     11 H11        27.6802    8.9150   15.3382 H       1  lig         0.4214
     12 C1         25.7559    5.8238   15.2455 C.ar    1  lig        -0.0999
     13 C2         24.1330    7.1085   14.0714 C.ar    1  lig        -0.0999
     14 C3         26.5957    6.9019   15.1896 C.ar    1  lig        -0.1787
     15 C4         24.9880    8.1896   13.9741 C.ar    1  lig        -0.1787
     16 C5         24.5215    5.9206   14.6801 C.ar    1  lig        -0.1394
     17 C6         26.2497    8.0584   14.5423 C.ar    1  lig         0.1292
     18 C7         23.8597    3.8897   12.4335 C.2     1  lig         0.9321
     19 C8         23.5745    4.7383   14.7578 C.3     1  lig        -0.0452
     20 C9         22.8583    4.3732   13.4572 C.3     1  lig        -0.0740
     21 N1         21.8664    3.3449   13.7694 N.4     1  lig        -0.8252
     22 O1         24.3068    4.7683   11.6995 O.co2   1  lig        -0.7573
     23 O2         24.1970    2.6776   12.3072 O.co2   1  lig        -0.7573
     24 O3         27.0781    9.0253   14.5464 O.3     1  lig        -0.4913
@<TRIPOS>BOND
     1     1    12    1
     2     2    13    1
     3     3    14    1
     4     4    15    1
     5     5    19    1
     6     6    19    1
     7     7    20    1
     8     8    21    1
     9     9    21    1
    10    10    21    1
    11    11    24    1
    12    12    14   ar
    13    12    16   ar
    14    13    15   ar
    15    13    16   ar
    16    14    17   ar
    17    15    17   ar
    18    16    19    1
    19    17    24    1
    20    18    20    1
    21    18    22    1
    22    18    23    1
    23    19    20    1
    24    20    21    1
@<TRIPOS>SUBSTRUCTURE
     1 lig         1 TEMP              0 ****  ****    0 ROOT


########## Name:		ligand
########## HA_RMSDs:		11.3565
########## HA_RMSDh:		11.3107
########## HA_RMSDm:		9.4423
########## Cluster Size:	1
##########    Grid Score:          -18.617813
##########      Grid_vdw:          -18.937748
##########       Grid_es:            0.319936
##########    Int_energy:            2.523101

@<TRIPOS>MOLECULE
ligand
 24 24 1 0 0
SMALL
No Charge or Current Charge


@<TRIPOS>ATOM
      1 H1         10.0269   10.7215   23.3766 H       1  lig         0.1340
      2 H2         12.6317    9.3488   20.2868 H       1  lig         0.1340
      3 H3          8.1954    9.5017   22.3247 H       1  lig         0.1475
      4 H4         10.7754    8.1554   19.1918 H       1  lig         0.1475
      5 H5         12.9437   11.6274   21.8357 H       1  lig         0.0877
      6 H6         12.2310   11.4491   23.4075 H       1  lig         0.0877
      7 H7         13.9502    9.2103   22.2648 H       1  lig         0.0966
      8 H8         12.6038    8.8316   24.2724 H       1  lig         0.4431
      9 H9         14.2057    8.8657   24.7032 H       1  lig         0.4431
     10 H10        13.2452   10.1965   24.9874 H       1  lig         0.4431
     11 H11         8.4959    8.0529   19.2322 H       1  lig         0.4214
     12 C1         10.2029   10.1688   22.4572 C.ar    1  lig        -0.0999
     13 C2         11.6387    9.3857   20.7287 C.ar    1  lig        -0.0999
     14 C3          9.1789    9.4794   21.8682 C.ar    1  lig        -0.1787
     15 C4         10.6027    8.7186   20.1034 C.ar    1  lig        -0.1787
     16 C5         11.4375   10.1300   21.8854 C.ar    1  lig        -0.1394
     17 C6          9.3478    8.7900   20.6967 C.ar    1  lig         0.1292
     18 C7         15.0250   10.8496   23.0424 C.2     1  lig         0.9321
     19 C8         12.5846   10.8722   22.5445 C.3     1  lig        -0.0452
     20 C9         13.7690   10.0107   22.9837 C.3     1  lig        -0.0740
     21 N1         13.4417    9.4370   24.2885 N.4     1  lig        -0.8252
     22 O1         14.8381   12.0332   23.3155 O.co2   1  lig        -0.7573
     23 O2         16.1793   10.3935   22.8005 O.co2   1  lig        -0.7573
     24 O3          8.3514    8.1589   20.2169 O.3     1  lig        -0.4913
@<TRIPOS>BOND
     1     1    12    1
     2     2    13    1
     3     3    14    1
     4     4    15    1
     5     5    19    1
     6     6    19    1
     7     7    20    1
     8     8    21    1
     9     9    21    1
    10    10    21    1
    11    11    24    1
    12    12    14   ar
    13    12    16   ar
    14    13    15   ar
    15    13    16   ar
    16    14    17   ar
    17    15    17   ar
    18    16    19    1
    19    17    24    1
    20    18    20    1
    21    18    22    1
    22    18    23    1
    23    19    20    1
    24    20    21    1
@<TRIPOS>SUBSTRUCTURE
     1 lig         1 TEMP              0 ****  ****    0 ROOT


########## Name:		ligand
########## HA_RMSDs:		13.0726
########## HA_RMSDh:		13.0252
########## HA_RMSDm:		10.4794
########## Cluster Size:	1
##########    Grid Score:          -18.576912
##########      Grid_vdw:          -18.169527
##########       Grid_es:           -0.407384
##########    Int_energy:            3.518324

@<TRIPOS>MOLECULE
ligand
 24 24 1 0 0
SMALL
No Charge or Current Charge


@<TRIPOS>ATOM
      1 H1         11.6162   12.3752   23.8517 H       1  lig         0.1340
      2 H2          8.1618    9.9725   23.1377 H       1  lig         0.1340
      3 H3         12.6767   11.3662   21.9008 H       1  lig         0.1475
      4 H4          9.2460    8.9131   21.1958 H       1  lig         0.1475
      5 H5          9.5783   12.8639   24.9521 H       1  lig         0.0877
      6 H6          8.0936   12.0220   24.6400 H       1  lig         0.0877
      7 H7          9.5681   11.7908   26.9610 H       1  lig         0.0966
      8 H8         11.2941   10.5394   25.7602 H       1  lig         0.4431
      9 H9         10.5308    9.5142   26.8182 H       1  lig         0.4431
     10 H10        10.1518    9.4604   25.1971 H       1  lig         0.4431
     11 H11        12.4575   10.1912   20.2472 H       1  lig         0.4214
     12 C1         11.0887   11.6139   23.2826 C.ar    1  lig        -0.0999
     13 C2          9.1706   10.2700   22.8614 C.ar    1  lig        -0.0999
     14 C3         11.6789   11.0503   22.1850 C.ar    1  lig        -0.1787
     15 C4          9.7727    9.6652   21.7746 C.ar    1  lig        -0.1787
     16 C5          9.8326   11.2208   23.6297 C.ar    1  lig        -0.1394
     17 C6         11.0627   10.0703   21.4529 C.ar    1  lig         0.1292
     18 C7          7.9999   10.4495   26.5268 C.2     1  lig         0.9321
     19 C8          9.1609   11.8574   24.8315 C.3     1  lig        -0.0452
     20 C9          9.3103   11.1038   26.1536 C.3     1  lig        -0.0740
     21 N1         10.3772   10.1179   25.9851 N.4     1  lig        -0.8252
     22 O1          7.5580    9.6708   25.6848 O.co2   1  lig        -0.7573
     23 O2          7.3786   10.6966   27.6000 O.co2   1  lig        -0.7573
     24 O3         11.6684    9.6046   20.4342 O.3     1  lig        -0.4913
@<TRIPOS>BOND
     1     1    12    1
     2     2    13    1
     3     3    14    1
     4     4    15    1
     5     5    19    1
     6     6    19    1
     7     7    20    1
     8     8    21    1
     9     9    21    1
    10    10    21    1
    11    11    24    1
    12    12    14   ar
    13    12    16   ar
    14    13    15   ar
    15    13    16   ar
    16    14    17   ar
    17    15    17   ar
    18    16    19    1
    19    17    24    1
    20    18    20    1
    21    18    22    1
    22    18    23    1
    23    19    20    1
    24    20    21    1
@<TRIPOS>SUBSTRUCTURE
     1 lig         1 TEMP              0 ****  ****    0 ROOT


########## Name:		ligand
########## HA_RMSDs:		12.3148
########## HA_RMSDh:		12.2666
########## HA_RMSDm:		10.0537
########## Cluster Size:	1
##########    Grid Score:          -18.573269
##########      Grid_vdw:          -17.384335
##########       Grid_es:           -1.188935
##########    Int_energy:            3.283829

@<TRIPOS>MOLECULE
ligand
 24 24 1 0 0
SMALL
No Charge or Current Charge


@<TRIPOS>ATOM
      1 H1          9.2269   10.2532   23.4445 H       1  lig         0.1340
      2 H2         11.8645    9.6648   20.1411 H       1  lig         0.1340
      3 H3          7.7315    8.5718   22.5035 H       1  lig         0.1475
      4 H4         10.3347    8.0019   19.1595 H       1  lig         0.1475
      5 H5         11.9521   11.7239   21.6042 H       1  lig         0.0877
      6 H6         11.0250   11.8187   23.0677 H       1  lig         0.0877
      7 H7         13.2273   11.3421   23.8098 H       1  lig         0.0966
      8 H8         14.0833   10.7337   21.5998 H       1  lig         0.4431
      9 H9         14.5493    9.5732   22.6903 H       1  lig         0.4431
     10 H10        13.2727    9.2760   21.6623 H       1  lig         0.4431
     11 H11         8.3650    7.0683   19.4331 H       1  lig         0.4214
     12 C1          9.4782    9.7724   22.5025 C.ar    1  lig        -0.0999
     13 C2         10.9375    9.4227   20.6557 C.ar    1  lig        -0.0999
     14 C3          8.6442    8.8253   21.9753 C.ar    1  lig        -0.1787
     15 C4         10.0829    8.4937   20.0937 C.ar    1  lig        -0.1787
     16 C5         10.6271   10.0802   21.8405 C.ar    1  lig        -0.1394
     17 C6          8.9073    8.2116   20.7794 C.ar    1  lig         0.1292
     18 C7         12.2839    9.4933   24.1827 C.2     1  lig         0.9321
     19 C8         11.5697   11.1123   22.4297 C.3     1  lig        -0.0452
     20 C9         12.7564   10.5562   23.2174 C.3     1  lig        -0.0740
     21 N1         13.7180   10.0214   22.2541 N.4     1  lig        -0.8252
     22 O1         12.0070    9.9082   25.3060 O.co2   1  lig        -0.7573
     23 O2         12.2053    8.2670   23.8849 O.co2   1  lig        -0.7573
     24 O3          8.0919    7.3279   20.3603 O.3     1  lig        -0.4913
@<TRIPOS>BOND
     1     1    12    1
     2     2    13    1
     3     3    14    1
     4     4    15    1
     5     5    19    1
     6     6    19    1
     7     7    20    1
     8     8    21    1
     9     9    21    1
    10    10    21    1
    11    11    24    1
    12    12    14   ar
    13    12    16   ar
    14    13    15   ar
    15    13    16   ar
    16    14    17   ar
    17    15    17   ar
    18    16    19    1
    19    17    24    1
    20    18    20    1
    21    18    22    1
    22    18    23    1
    23    19    20    1
    24    20    21    1
@<TRIPOS>SUBSTRUCTURE
     1 lig         1 TEMP              0 ****  ****    0 ROOT


########## Name:		ligand
########## HA_RMSDs:		14.7911
########## HA_RMSDh:		14.7416
########## HA_RMSDm:		13.0475
########## Cluster Size:	1
##########    Grid Score:          -18.569059
##########      Grid_vdw:          -15.564842
##########       Grid_es:           -3.004218
##########    Int_energy:            3.119148

@<TRIPOS>MOLECULE
ligand
 24 24 1 0 0
SMALL
No Charge or Current Charge


@<TRIPOS>ATOM
      1 H1         21.8912    4.8054   13.4363 H       1  lig         0.1340
      2 H2         25.8393    6.3578   13.9030 H       1  lig         0.1340
      3 H3         21.2988    6.7957   12.1570 H       1  lig         0.1475
      4 H4         25.2338    8.3934   12.6545 H       1  lig         0.1475
      5 H5         24.9693    4.5275   15.3416 H       1  lig         0.0877
      6 H6         23.4062    3.8196   15.0844 H       1  lig         0.0877
      7 H7         24.9072    2.1647   14.3010 H       1  lig         0.0966
      8 H8         26.8690    3.6269   14.3049 H       1  lig         0.4431
      9 H9         26.8165    2.8090   12.8623 H       1  lig         0.4431
     10 H10        26.3244    4.3990   12.9290 H       1  lig         0.4431
     11 H11        21.8522    8.8867   11.8459 H       1  lig         0.4214
     12 C1         22.6306    5.5863   13.2778 C.ar    1  lig        -0.0999
     13 C2         24.8278    6.4677   13.5192 C.ar    1  lig        -0.0999
     14 C3         22.3027    6.7010   12.5561 C.ar    1  lig        -0.1787
     15 C4         24.4960    7.6160   12.8260 C.ar    1  lig        -0.1787
     16 C5         23.8947    5.4679   13.7686 C.ar    1  lig        -0.1394
     17 C6         23.1936    7.7212   12.3522 C.ar    1  lig         0.1292
     18 C7         24.1317    2.8634   12.4687 C.2     1  lig         0.9321
     19 C8         24.2742    4.2243   14.5500 C.3     1  lig        -0.0452
     20 C9         24.9173    3.0994   13.7383 C.3     1  lig        -0.0740
     21 N1         26.2978    3.4893   13.4542 N.4     1  lig        -0.8252
     22 O1         23.1620    2.1192   12.5971 O.co2   1  lig        -0.7573
     23 O2         24.4515    3.3577   11.3496 O.co2   1  lig        -0.7573
     24 O3         22.8207    8.7201   11.6562 O.3     1  lig        -0.4913
@<TRIPOS>BOND
     1     1    12    1
     2     2    13    1
     3     3    14    1
     4     4    15    1
     5     5    19    1
     6     6    19    1
     7     7    20    1
     8     8    21    1
     9     9    21    1
    10    10    21    1
    11    11    24    1
    12    12    14   ar
    13    12    16   ar
    14    13    15   ar
    15    13    16   ar
    16    14    17   ar
    17    15    17   ar
    18    16    19    1
    19    17    24    1
    20    18    20    1
    21    18    22    1
    22    18    23    1
    23    19    20    1
    24    20    21    1
@<TRIPOS>SUBSTRUCTURE
     1 lig         1 TEMP              0 ****  ****    0 ROOT


########## Name:		ligand
########## HA_RMSDs:		12.8859
########## HA_RMSDh:		12.8301
########## HA_RMSDm:		11.4168
########## Cluster Size:	1
##########    Grid Score:          -18.558018
##########      Grid_vdw:          -15.651186
##########       Grid_es:           -2.906831
##########    Int_energy:            4.085948

@<TRIPOS>MOLECULE
ligand
 24 24 1 0 0
SMALL
No Charge or Current Charge


@<TRIPOS>ATOM
      1 H1         10.0437    7.3771   23.9138 H       1  lig         0.1340
      2 H2         11.7240   10.8097   22.0139 H       1  lig         0.1340
      3 H3          9.2429    6.6113   21.7410 H       1  lig         0.1475
      4 H4         10.8750   10.0673   19.8237 H       1  lig         0.1475
      5 H5         11.7158    8.7374   25.0259 H       1  lig         0.0877
      6 H6         12.3613   10.1908   24.3320 H       1  lig         0.0877
      7 H7         10.8664   10.6604   26.2692 H       1  lig         0.0966
      8 H8          9.3449    8.7810   25.8955 H       1  lig         0.4431
      9 H9          8.4607   10.1846   25.9276 H       1  lig         0.4431
     10 H10         8.8151    9.4646   24.4679 H       1  lig         0.4431
     11 H11         9.0821    8.5493   19.0680 H       1  lig         0.4214
     12 C1         10.2270    7.9787   23.0271 C.ar    1  lig        -0.0999
     13 C2         11.1623    9.8810   21.9459 C.ar    1  lig        -0.0999
     14 C3          9.7838    7.5490   21.8067 C.ar    1  lig        -0.1787
     15 C4         10.6845    9.4765   20.7140 C.ar    1  lig        -0.1787
     16 C5         10.9136    9.1516   23.1029 C.ar    1  lig        -0.1394
     17 C6          9.9698    8.2854   20.6668 C.ar    1  lig         0.1292
     18 C7         10.2105   11.7903   24.6139 C.2     1  lig         0.9321
     19 C8         11.4295    9.6244   24.4487 C.3     1  lig        -0.0452
     20 C9         10.4524   10.4556   25.2808 C.3     1  lig        -0.0740
     21 N1          9.2156    9.6865   25.4136 N.4     1  lig        -0.8252
     22 O1          9.4002   11.7620   23.6903 O.co2   1  lig        -0.7573
     23 O2         10.8094   12.8534   24.9454 O.co2   1  lig        -0.7573
     24 O3          9.5429    7.8124   19.5644 O.3     1  lig        -0.4913
@<TRIPOS>BOND
     1     1    12    1
     2     2    13    1
     3     3    14    1
     4     4    15    1
     5     5    19    1
     6     6    19    1
     7     7    20    1
     8     8    21    1
     9     9    21    1
    10    10    21    1
    11    11    24    1
    12    12    14   ar
    13    12    16   ar
    14    13    15   ar
    15    13    16   ar
    16    14    17   ar
    17    15    17   ar
    18    16    19    1
    19    17    24    1
    20    18    20    1
    21    18    22    1
    22    18    23    1
    23    19    20    1
    24    20    21    1
@<TRIPOS>SUBSTRUCTURE
     1 lig         1 TEMP              0 ****  ****    0 ROOT


########## Name:		ligand
########## HA_RMSDs:		13.7697
########## HA_RMSDh:		13.7515
########## HA_RMSDm:		11.5392
########## Cluster Size:	1
##########    Grid Score:          -18.549667
##########      Grid_vdw:          -18.506327
##########       Grid_es:           -0.043341
##########    Int_energy:            3.064911

@<TRIPOS>MOLECULE
ligand
 24 24 1 0 0
SMALL
No Charge or Current Charge


@<TRIPOS>ATOM
      1 H1         25.1850    5.0834   15.8434 H       1  lig         0.1340
      2 H2         24.0815    8.4721   13.4951 H       1  lig         0.1340
      3 H3         27.2351    6.2396   16.4830 H       1  lig         0.1475
      4 H4         26.1734    9.6255   14.0972 H       1  lig         0.1475
      5 H5         22.9692    5.3044   15.0395 H       1  lig         0.0877
      6 H6         22.3957    6.6974   14.1785 H       1  lig         0.0877
      7 H7         23.1636    4.1304   13.1083 H       1  lig         0.0966
      8 H8         25.3742    5.1500   12.8623 H       1  lig         0.4431
      9 H9         24.6878    4.9958   11.3596 H       1  lig         0.4431
     10 H10        24.7016    6.4812   12.1131 H       1  lig         0.4431
     11 H11        28.6904    8.1209   15.1983 H       1  lig         0.4214
     12 C1         25.3923    6.0749   15.4490 C.ar    1  lig        -0.0999
     13 C2         24.7935    7.9781   14.1520 C.ar    1  lig        -0.0999
     14 C3         26.5385    6.7278   15.8103 C.ar    1  lig        -0.1787
     15 C4         25.9670    8.6306   14.4785 C.ar    1  lig        -0.1787
     16 C5         24.5167    6.6958   14.6119 C.ar    1  lig        -0.1394
     17 C6         26.8531    7.9671   15.3191 C.ar    1  lig         0.1292
     18 C7         22.1295    5.6132   12.0226 C.2     1  lig         0.9321
     19 C8         23.2317    5.9890   14.2245 C.3     1  lig        -0.0452
     20 C9         23.2758    5.1985   12.9163 C.3     1  lig        -0.0740
     21 N1         24.5708    5.4532   12.2865 N.4     1  lig        -0.8252
     22 O1         22.1648    6.7855   11.6551 O.co2   1  lig        -0.7573
     23 O2         21.1850    4.8385   11.6962 O.co2   1  lig        -0.7573
     24 O3         27.9306    8.5189   15.7140 O.3     1  lig        -0.4913
@<TRIPOS>BOND
     1     1    12    1
     2     2    13    1
     3     3    14    1
     4     4    15    1
     5     5    19    1
     6     6    19    1
     7     7    20    1
     8     8    21    1
     9     9    21    1
    10    10    21    1
    11    11    24    1
    12    12    14   ar
    13    12    16   ar
    14    13    15   ar
    15    13    16   ar
    16    14    17   ar
    17    15    17   ar
    18    16    19    1
    19    17    24    1
    20    18    20    1
    21    18    22    1
    22    18    23    1
    23    19    20    1
    24    20    21    1
@<TRIPOS>SUBSTRUCTURE
     1 lig         1 TEMP              0 ****  ****    0 ROOT


########## Name:		ligand
########## HA_RMSDs:		12.9703
########## HA_RMSDh:		12.9057
########## HA_RMSDm:		11.5291
########## Cluster Size:	1
##########    Grid Score:          -18.539646
##########      Grid_vdw:          -17.870617
##########       Grid_es:           -0.669030
##########    Int_energy:            1.716290

@<TRIPOS>MOLECULE
ligand
 24 24 1 0 0
SMALL
No Charge or Current Charge


@<TRIPOS>ATOM
      1 H1          7.5657    9.4186   23.6716 H       1  lig         0.1340
      2 H2         11.0881   11.4925   22.4440 H       1  lig         0.1340
      3 H3          7.9454    7.7944   21.8921 H       1  lig         0.1475
      4 H4         11.4500    9.8841   20.6133 H       1  lig         0.1475
      5 H5          9.5202   12.5216   23.9591 H       1  lig         0.0877
      6 H6          8.0019   11.7984   24.3859 H       1  lig         0.0877
      7 H7          9.4199   10.1391   25.8603 H       1  lig         0.0966
      8 H8          7.9839   11.9396   26.6866 H       1  lig         0.4431
      9 H9          9.3646   11.8944   27.6056 H       1  lig         0.4431
     10 H10         9.1958   13.0569   26.4247 H       1  lig         0.4431
     11 H11         8.9180    7.5522   19.9418 H       1  lig         0.4214
     12 C1          8.4164    9.5356   23.0051 C.ar    1  lig        -0.0999
     13 C2         10.3877   10.6718   22.3081 C.ar    1  lig        -0.0999
     14 C3          8.6348    8.6233   22.0098 C.ar    1  lig        -0.1787
     15 C4         10.5955    9.7787   21.2743 C.ar    1  lig        -0.1787
     16 C5          9.2898   10.5689   23.1545 C.ar    1  lig        -0.1394
     17 C6          9.6786    8.7440   21.1312 C.ar    1  lig         0.1292
     18 C7         11.1413   11.3355   25.6316 C.2     1  lig         0.9321
     19 C8          9.0688   11.5723   24.2704 C.3     1  lig        -0.0452
     20 C9          9.6374   11.1844   25.6358 C.3     1  lig        -0.0740
     21 N1          9.0113   12.0450   26.6388 N.4     1  lig        -0.8252
     22 O1         11.5457   12.4440   25.9754 O.co2   1  lig        -0.7573
     23 O2         11.9328   10.4163   25.2747 O.co2   1  lig        -0.7573
     24 O3          9.8268    7.8463   20.2404 O.3     1  lig        -0.4913
@<TRIPOS>BOND
     1     1    12    1
     2     2    13    1
     3     3    14    1
     4     4    15    1
     5     5    19    1
     6     6    19    1
     7     7    20    1
     8     8    21    1
     9     9    21    1
    10    10    21    1
    11    11    24    1
    12    12    14   ar
    13    12    16   ar
    14    13    15   ar
    15    13    16   ar
    16    14    17   ar
    17    15    17   ar
    18    16    19    1
    19    17    24    1
    20    18    20    1
    21    18    22    1
    22    18    23    1
    23    19    20    1
    24    20    21    1
@<TRIPOS>SUBSTRUCTURE
     1 lig         1 TEMP              0 ****  ****    0 ROOT


########## Name:		ligand
########## HA_RMSDs:		13.0147
########## HA_RMSDh:		12.9886
########## HA_RMSDm:		11.4575
########## Cluster Size:	1
##########    Grid Score:          -18.529335
##########      Grid_vdw:          -16.736622
##########       Grid_es:           -1.792713
##########    Int_energy:            2.931307

@<TRIPOS>MOLECULE
ligand
 24 24 1 0 0
SMALL
No Charge or Current Charge


@<TRIPOS>ATOM
      1 H1         10.0346    9.6627   21.6526 H       1  lig         0.1340
      2 H2          7.2394   10.3151   24.8113 H       1  lig         0.1340
      3 H3         11.3552   11.5377   22.4827 H       1  lig         0.1475
      4 H4          8.5422   12.2411   25.6253 H       1  lig         0.1475
      5 H5          6.7113    8.8161   23.0634 H       1  lig         0.0877
      6 H6          7.6033    8.7569   21.5764 H       1  lig         0.0877
      7 H7          7.4430    6.6009   23.0837 H       1  lig         0.0966
      8 H8          8.2488    7.7318   25.0983 H       1  lig         0.4431
      9 H9          9.3349    6.5492   24.6800 H       1  lig         0.4431
     10 H10         9.6708    8.1419   24.3265 H       1  lig         0.4431
     11 H11        10.6635   13.0759   25.4424 H       1  lig         0.4214
     12 C1          9.6933   10.2228   22.5196 C.ar    1  lig        -0.0999
     13 C2          8.1519   10.6000   24.2928 C.ar    1  lig        -0.0999
     14 C3         10.4347   11.2712   22.9904 C.ar    1  lig        -0.1787
     15 C4          8.8720   11.6858   24.7530 C.ar    1  lig        -0.1787
     16 C5          8.5436    9.8864   23.1660 C.ar    1  lig        -0.1394
     17 C6         10.0316   12.0207   24.0637 C.ar    1  lig         0.1292
     18 C7          9.2262    6.8411   21.9840 C.2     1  lig         0.9321
     19 C8          7.7272    8.7102   22.6651 C.3     1  lig        -0.0452
     20 C9          8.2574    7.3254   23.0383 C.3     1  lig        -0.0740
     21 N1          8.8960    7.4326   24.3496 N.4     1  lig        -0.8252
     22 O1          8.7015    6.2740   21.0281 O.co2   1  lig        -0.7573
     23 O2         10.4804    6.9717   22.0776 O.co2   1  lig        -0.7573
     24 O3         10.7830   12.9716   24.4542 O.3     1  lig        -0.4913
@<TRIPOS>BOND
     1     1    12    1
     2     2    13    1
     3     3    14    1
     4     4    15    1
     5     5    19    1
     6     6    19    1
     7     7    20    1
     8     8    21    1
     9     9    21    1
    10    10    21    1
    11    11    24    1
    12    12    14   ar
    13    12    16   ar
    14    13    15   ar
    15    13    16   ar
    16    14    17   ar
    17    15    17   ar
    18    16    19    1
    19    17    24    1
    20    18    20    1
    21    18    22    1
    22    18    23    1
    23    19    20    1
    24    20    21    1
@<TRIPOS>SUBSTRUCTURE
     1 lig         1 TEMP              0 ****  ****    0 ROOT


########## Name:		ligand
########## HA_RMSDs:		13.4201
########## HA_RMSDh:		13.3405
########## HA_RMSDm:		11.0375
########## Cluster Size:	1
##########    Grid Score:          -18.522058
##########      Grid_vdw:          -17.993053
##########       Grid_es:           -0.529004
##########    Int_energy:            1.029248

@<TRIPOS>MOLECULE
ligand
 24 24 1 0 0
SMALL
No Charge or Current Charge


@<TRIPOS>ATOM
      1 H1          9.8851    9.5903   20.7587 H       1  lig         0.1340
      2 H2          7.3997    9.2218   24.2087 H       1  lig         0.1340
      3 H3          8.5619    7.8578   19.6650 H       1  lig         0.1475
      4 H4          6.0902    7.4363   23.1287 H       1  lig         0.1475
      5 H5          9.7389   11.3716   22.4967 H       1  lig         0.0877
      6 H6          8.9566   11.0826   24.0183 H       1  lig         0.0877
      7 H7         11.0862    9.1025   23.6033 H       1  lig         0.0966
      8 H8         10.0491    9.7419   25.7252 H       1  lig         0.4431
      9 H9         11.6705   10.0861   25.7990 H       1  lig         0.4431
     10 H10        10.5765   11.3140   25.5350 H       1  lig         0.4431
     11 H11         5.6685    6.6876   20.9777 H       1  lig         0.4214
     12 C1          9.0609    9.1224   21.2911 C.ar    1  lig        -0.0999
     13 C2          7.6580    8.9053   23.2009 C.ar    1  lig        -0.0999
     14 C3          8.3138    8.1545   20.6782 C.ar    1  lig        -0.1787
     15 C4          6.9217    7.8985   22.6062 C.ar    1  lig        -0.1787
     16 C5          8.7395    9.4979   22.5594 C.ar    1  lig        -0.1394
     17 C6          7.2824    7.5200   21.3184 C.ar    1  lig         0.1292
     18 C7         12.0095   10.9659   23.2541 C.2     1  lig         0.9321
     19 C8          9.5477   10.5873   23.2384 C.3     1  lig        -0.0452
     20 C9         10.8824   10.1475   23.8411 C.3     1  lig        -0.0740
     21 N1         10.7921   10.3150   25.2911 N.4     1  lig        -0.8252
     22 O1         12.4875   10.5101   22.2176 O.co2   1  lig        -0.7573
     23 O2         12.4584   12.0191   23.7907 O.co2   1  lig        -0.7573
     24 O3          6.6220    6.6402   20.6772 O.3     1  lig        -0.4913
@<TRIPOS>BOND
     1     1    12    1
     2     2    13    1
     3     3    14    1
     4     4    15    1
     5     5    19    1
     6     6    19    1
     7     7    20    1
     8     8    21    1
     9     9    21    1
    10    10    21    1
    11    11    24    1
    12    12    14   ar
    13    12    16   ar
    14    13    15   ar
    15    13    16   ar
    16    14    17   ar
    17    15    17   ar
    18    16    19    1
    19    17    24    1
    20    18    20    1
    21    18    22    1
    22    18    23    1
    23    19    20    1
    24    20    21    1
@<TRIPOS>SUBSTRUCTURE
     1 lig         1 TEMP              0 ****  ****    0 ROOT


########## Name:		ligand
########## HA_RMSDs:		9.7603
########## HA_RMSDh:		9.7472
########## HA_RMSDm:		8.2146
########## Cluster Size:	1
##########    Grid Score:          -18.516106
##########      Grid_vdw:          -15.941336
##########       Grid_es:           -2.574769
##########    Int_energy:            1.478156

@<TRIPOS>MOLECULE
ligand
 24 24 1 0 0
SMALL
No Charge or Current Charge


@<TRIPOS>ATOM
      1 H1         14.1601   13.7092   27.4798 H       1  lig         0.1340
      2 H2         17.5559   16.2002   26.7878 H       1  lig         0.1340
      3 H3         12.9114   15.6747   28.2053 H       1  lig         0.1475
      4 H4         16.3161   18.1815   27.5666 H       1  lig         0.1475
      5 H5         17.5443   13.4531   27.3445 H       1  lig         0.0877
      6 H6         16.1078   12.7048   26.7223 H       1  lig         0.0877
      7 H7         18.0844   14.4389   25.1734 H       1  lig         0.0966
      8 H8         15.7839   14.9920   24.5503 H       1  lig         0.4431
      9 H9         16.4712   14.1105   23.3241 H       1  lig         0.4431
     10 H10        15.4165   13.3726   24.3813 H       1  lig         0.4431
     11 H11        13.1583   17.6819   29.0242 H       1  lig         0.4214
     12 C1         14.6459   14.6814   27.5000 C.ar    1  lig        -0.0999
     13 C2         16.5245   16.0903   27.1143 C.ar    1  lig        -0.0999
     14 C3         13.9464   15.7862   27.9012 C.ar    1  lig        -0.1787
     15 C4         15.8396   17.2063   27.5557 C.ar    1  lig        -0.1787
     16 C5         15.9419   14.8281   27.1105 C.ar    1  lig        -0.1394
     17 C6         14.5241   17.0264   27.9665 C.ar    1  lig         0.1292
     18 C7         17.8977   12.3657   24.8362 C.2     1  lig         0.9321
     19 C8         16.7183   13.6124   26.6415 C.3     1  lig        -0.0452
     20 C9         17.2895   13.6935   25.2254 C.3     1  lig        -0.0740
     21 N1         16.1990   14.0717   24.3274 N.4     1  lig        -0.8252
     22 O1         19.0806   12.2345   25.1430 O.co2   1  lig        -0.7573
     23 O2         17.2641   11.4643   24.2157 O.co2   1  lig        -0.7573
     24 O3         13.8046   18.0105   28.3343 O.3     1  lig        -0.4913
@<TRIPOS>BOND
     1     1    12    1
     2     2    13    1
     3     3    14    1
     4     4    15    1
     5     5    19    1
     6     6    19    1
     7     7    20    1
     8     8    21    1
     9     9    21    1
    10    10    21    1
    11    11    24    1
    12    12    14   ar
    13    12    16   ar
    14    13    15   ar
    15    13    16   ar
    16    14    17   ar
    17    15    17   ar
    18    16    19    1
    19    17    24    1
    20    18    20    1
    21    18    22    1
    22    18    23    1
    23    19    20    1
    24    20    21    1
@<TRIPOS>SUBSTRUCTURE
     1 lig         1 TEMP              0 ****  ****    0 ROOT


########## Name:		ligand
########## HA_RMSDs:		10.2419
########## HA_RMSDh:		10.2219
########## HA_RMSDm:		7.8948
########## Cluster Size:	1
##########    Grid Score:          -18.515898
##########      Grid_vdw:          -13.736004
##########       Grid_es:           -4.779893
##########    Int_energy:            1.338567

@<TRIPOS>MOLECULE
ligand
 24 24 1 0 0
SMALL
No Charge or Current Charge


@<TRIPOS>ATOM
      1 H1         17.0495   16.3323   25.7985 H       1  lig         0.1340
      2 H2         13.9635   13.7709   27.2585 H       1  lig         0.1340
      3 H3         16.1792   18.1235   27.2067 H       1  lig         0.1475
      4 H4         13.0492   15.5902   28.6453 H       1  lig         0.1475
      5 H5         15.4370   12.9566   25.6903 H       1  lig         0.0877
      6 H6         16.0179   14.0758   24.4983 H       1  lig         0.0877
      7 H7         18.1067   14.2335   26.2630 H       1  lig         0.0966
      8 H8         18.1683   13.6771   23.8811 H       1  lig         0.4431
      9 H9         19.1022   12.5834   24.7086 H       1  lig         0.4431
     10 H10        17.5768   12.1492   24.1997 H       1  lig         0.4431
     11 H11        14.9612   18.5724   28.8512 H       1  lig         0.4214
     12 C1         16.1693   16.1585   26.4123 C.ar    1  lig        -0.0999
     13 C2         14.4450   14.7459   27.2453 C.ar    1  lig        -0.0999
     14 C3         15.6824   17.1595   27.2070 C.ar    1  lig        -0.1787
     15 C4         13.9207   15.7618   28.0215 C.ar    1  lig        -0.1787
     16 C5         15.5477   14.9476   26.4233 C.ar    1  lig        -0.1394
     17 C6         14.5621   16.9941   27.9775 C.ar    1  lig         0.1292
     18 C7         17.5403   12.3083   26.9109 C.2     1  lig         0.9321
     19 C8         16.0949   13.8243   25.5631 C.3     1  lig        -0.0452
     20 C9         17.5321   13.3970   25.8624 C.3     1  lig        -0.0740
     21 N1         18.1312   12.9428   24.6081 N.4     1  lig        -0.8252
     22 O1         17.8798   12.6796   28.0323 O.co2   1  lig        -0.7573
     23 O2         17.2551   11.1014   26.6642 O.co2   1  lig        -0.7573
     24 O3         14.1781   17.9669   28.7038 O.3     1  lig        -0.4913
@<TRIPOS>BOND
     1     1    12    1
     2     2    13    1
     3     3    14    1
     4     4    15    1
     5     5    19    1
     6     6    19    1
     7     7    20    1
     8     8    21    1
     9     9    21    1
    10    10    21    1
    11    11    24    1
    12    12    14   ar
    13    12    16   ar
    14    13    15   ar
    15    13    16   ar
    16    14    17   ar
    17    15    17   ar
    18    16    19    1
    19    17    24    1
    20    18    20    1
    21    18    22    1
    22    18    23    1
    23    19    20    1
    24    20    21    1
@<TRIPOS>SUBSTRUCTURE
     1 lig         1 TEMP              0 ****  ****    0 ROOT


########## Name:		ligand
########## HA_RMSDs:		14.8411
########## HA_RMSDh:		14.8381
########## HA_RMSDm:		12.7111
########## Cluster Size:	2
##########    Grid Score:          -18.505846
##########      Grid_vdw:          -16.342602
##########       Grid_es:           -2.163245
##########    Int_energy:            2.054472

@<TRIPOS>MOLECULE
ligand
 24 24 1 0 0
SMALL
No Charge or Current Charge


@<TRIPOS>ATOM
      1 H1          7.2034    8.8724   23.0829 H       1  lig         0.1340
      2 H2          8.6756    6.8515   19.6240 H       1  lig         0.1340
      3 H3          9.1364   10.3571   22.9937 H       1  lig         0.1475
      4 H4         10.6558    8.3155   19.5576 H       1  lig         0.1475
      5 H5          5.9614    7.1947   22.2132 H       1  lig         0.0877
      6 H6          6.0256    6.9415   20.4979 H       1  lig         0.0877
      7 H7          7.8791    5.0850   21.2065 H       1  lig         0.0966
      8 H8          5.7877    4.7393   19.9845 H       1  lig         0.4431
      9 H9          5.9299    3.5596   21.1424 H       1  lig         0.4431
     10 H10         4.9141    4.8539   21.4021 H       1  lig         0.4431
     11 H11        10.7697   10.9832   21.9545 H       1  lig         0.4214
     12 C1          7.9551    8.7357   22.3096 C.ar    1  lig        -0.0999
     13 C2          8.7908    7.6282   20.3763 C.ar    1  lig        -0.0999
     14 C3          9.0373    9.5702   22.2540 C.ar    1  lig        -0.1787
     15 C4          9.9082    8.4400   20.3345 C.ar    1  lig        -0.1787
     16 C5          7.8305    7.7555   21.3733 C.ar    1  lig        -0.1394
     17 C6         10.0216    9.4202   21.3134 C.ar    1  lig         0.1292
     18 C7          7.0029    5.0713   23.1246 C.2     1  lig         0.9321
     19 C8          6.6216    6.8402   21.4130 C.3     1  lig        -0.0452
     20 C9          6.9171    5.3577   21.6430 C.3     1  lig        -0.0740
     21 N1          5.8499    4.5876   21.0053 N.4     1  lig        -0.8252
     22 O1          7.8936    5.6801   23.7133 O.co2   1  lig        -0.7573
     23 O2          6.2483    4.2498   23.7202 O.co2   1  lig        -0.7573
     24 O3         10.9908   10.2460   21.3146 O.3     1  lig        -0.4913
@<TRIPOS>BOND
     1     1    12    1
     2     2    13    1
     3     3    14    1
     4     4    15    1
     5     5    19    1
     6     6    19    1
     7     7    20    1
     8     8    21    1
     9     9    21    1
    10    10    21    1
    11    11    24    1
    12    12    14   ar
    13    12    16   ar
    14    13    15   ar
    15    13    16   ar
    16    14    17   ar
    17    15    17   ar
    18    16    19    1
    19    17    24    1
    20    18    20    1
    21    18    22    1
    22    18    23    1
    23    19    20    1
    24    20    21    1
@<TRIPOS>SUBSTRUCTURE
     1 lig         1 TEMP              0 ****  ****    0 ROOT


########## Name:		ligand
########## HA_RMSDs:		11.0380
########## HA_RMSDh:		11.0380
########## HA_RMSDm:		9.3331
########## Cluster Size:	1
##########    Grid Score:          -18.502144
##########      Grid_vdw:          -17.522547
##########       Grid_es:           -0.979598
##########    Int_energy:            3.226715

@<TRIPOS>MOLECULE
ligand
 24 24 1 0 0
SMALL
No Charge or Current Charge


@<TRIPOS>ATOM
      1 H1         17.3668   16.8340   30.1812 H       1  lig         0.1340
      2 H2         14.9173   17.2359   26.7093 H       1  lig         0.1340
      3 H3         15.6361   17.9512   31.4872 H       1  lig         0.1475
      4 H4         13.1869   18.4093   28.0123 H       1  lig         0.1475
      5 H5         17.3445   16.7345   26.5507 H       1  lig         0.0877
      6 H6         18.3233   16.4674   27.9583 H       1  lig         0.0877
      7 H7         16.8809   14.3066   28.3401 H       1  lig         0.0966
      8 H8         19.1979   14.3672   27.5561 H       1  lig         0.4431
      9 H9         18.3814   13.1918   26.7165 H       1  lig         0.4431
     10 H10        18.6858   14.6620   25.9951 H       1  lig         0.4431
     11 H11        12.6404   18.9795   30.0518 H       1  lig         0.4214
     12 C1         16.4591   17.1795   29.6929 C.ar    1  lig        -0.0999
     13 C2         15.0737   17.4079   27.7716 C.ar    1  lig        -0.0999
     14 C3         15.4847   17.8014   30.4238 C.ar    1  lig        -0.1787
     15 C4         14.1003   18.0728   28.4924 C.ar    1  lig        -0.1787
     16 C5         16.2602   16.9856   28.3603 C.ar    1  lig        -0.1394
     17 C6         14.3363   18.2755   29.8471 C.ar    1  lig         0.1292
     18 C7         16.0104   14.4803   26.4272 C.2     1  lig         0.9321
     19 C8         17.3251   16.2757   27.5462 C.3     1  lig        -0.0452
     20 C9         17.1435   14.7660   27.3860 C.3     1  lig        -0.0740
     21 N1         18.4096   14.2145   26.9048 N.4     1  lig        -0.8252
     22 O1         16.0746   15.0900   25.3620 O.co2   1  lig        -0.7573
     23 O2         15.0489   13.7045   26.6965 O.co2   1  lig        -0.7573
     24 O3         13.4674   18.8293   30.5951 O.3     1  lig        -0.4913
@<TRIPOS>BOND
     1     1    12    1
     2     2    13    1
     3     3    14    1
     4     4    15    1
     5     5    19    1
     6     6    19    1
     7     7    20    1
     8     8    21    1
     9     9    21    1
    10    10    21    1
    11    11    24    1
    12    12    14   ar
    13    12    16   ar
    14    13    15   ar
    15    13    16   ar
    16    14    17   ar
    17    15    17   ar
    18    16    19    1
    19    17    24    1
    20    18    20    1
    21    18    22    1
    22    18    23    1
    23    19    20    1
    24    20    21    1
@<TRIPOS>SUBSTRUCTURE
     1 lig         1 TEMP              0 ****  ****    0 ROOT


########## Name:		ligand
########## HA_RMSDs:		11.5684
########## HA_RMSDh:		11.5684
########## HA_RMSDm:		9.8298
########## Cluster Size:	1
##########    Grid Score:          -18.498400
##########      Grid_vdw:          -16.438061
##########       Grid_es:           -2.060338
##########    Int_energy:            3.823034

@<TRIPOS>MOLECULE
ligand
 24 24 1 0 0
SMALL
No Charge or Current Charge


@<TRIPOS>ATOM
      1 H1         12.9582   11.8613   24.1386 H       1  lig         0.1340
      2 H2          9.2114   10.6426   22.4980 H       1  lig         0.1340
      3 H3         11.8111   12.4911   26.1968 H       1  lig         0.1475
      4 H4          8.0395   11.3230   24.5553 H       1  lig         0.1475
      5 H5         11.3967   11.3665   21.0759 H       1  lig         0.0877
      6 H6         12.9049   11.1698   21.9108 H       1  lig         0.0877
      7 H7         12.7458    9.0420   21.0396 H       1  lig         0.0966
      8 H8         10.6656    9.5763   19.8674 H       1  lig         0.4431
      9 H9         10.5310    8.0604   20.5283 H       1  lig         0.4431
     10 H10         9.7910    9.3543   21.2716 H       1  lig         0.4431
     11 H11         8.4336   11.9084   26.6538 H       1  lig         0.4214
     12 C1         11.8802   11.7441   24.2145 C.ar    1  lig        -0.0999
     13 C2          9.7814   11.0641   23.3226 C.ar    1  lig        -0.0999
     14 C3         11.2351   12.0914   25.3694 C.ar    1  lig        -0.1787
     15 C4          9.1141   11.4489   24.4698 C.ar    1  lig        -0.1787
     16 C5         11.1539   11.2342   23.1823 C.ar    1  lig        -0.1394
     17 C6          9.8759   11.9848   25.5015 C.ar    1  lig         0.1292
     18 C7         11.8275    8.5263   22.8666 C.2     1  lig         0.9321
     19 C8         11.8641   10.8242   21.9061 C.3     1  lig        -0.0452
     20 C9         11.8462    9.3292   21.5860 C.3     1  lig        -0.0740
     21 N1         10.6650    9.0643   20.7656 N.4     1  lig        -0.8252
     22 O1         12.8357    8.6439   23.5597 O.co2   1  lig        -0.7573
     23 O2         10.8739    7.7648   23.1975 O.co2   1  lig        -0.7573
     24 O3          9.3483   12.3126   26.6130 O.3     1  lig        -0.4913
@<TRIPOS>BOND
     1     1    12    1
     2     2    13    1
     3     3    14    1
     4     4    15    1
     5     5    19    1
     6     6    19    1
     7     7    20    1
     8     8    21    1
     9     9    21    1
    10    10    21    1
    11    11    24    1
    12    12    14   ar
    13    12    16   ar
    14    13    15   ar
    15    13    16   ar
    16    14    17   ar
    17    15    17   ar
    18    16    19    1
    19    17    24    1
    20    18    20    1
    21    18    22    1
    22    18    23    1
    23    19    20    1
    24    20    21    1
@<TRIPOS>SUBSTRUCTURE
     1 lig         1 TEMP              0 ****  ****    0 ROOT


########## Name:		ligand
########## HA_RMSDs:		12.9439
########## HA_RMSDh:		12.8699
########## HA_RMSDm:		10.7654
########## Cluster Size:	1
##########    Grid Score:          -18.490231
##########      Grid_vdw:          -17.280481
##########       Grid_es:           -1.209750
##########    Int_energy:            2.920242

@<TRIPOS>MOLECULE
ligand
 24 24 1 0 0
SMALL
No Charge or Current Charge


@<TRIPOS>ATOM
      1 H1         10.5311    9.5047   19.9360 H       1  lig         0.1340
      2 H2          8.8968   10.1001   23.8335 H       1  lig         0.1340
      3 H3          8.6258    8.0817   19.3939 H       1  lig         0.1475
      4 H4          6.9954    8.6239   23.3095 H       1  lig         0.1475
      5 H5         11.3778   11.2156   21.3264 H       1  lig         0.0877
      6 H6         10.6921   11.6284   22.8658 H       1  lig         0.0877
      7 H7         13.0699   10.7465   22.9652 H       1  lig         0.0966
      8 H8         12.7689    9.0176   21.2601 H       1  lig         0.4431
      9 H9         13.2559    8.2950   22.6721 H       1  lig         0.4431
     10 H10        11.6535    8.2318   22.2216 H       1  lig         0.4431
     11 H11         5.9726    7.6930   21.5490 H       1  lig         0.4214
     12 C1          9.7672    9.3149   20.6858 C.ar    1  lig        -0.0999
     13 C2          8.8339    9.6389   22.8507 C.ar    1  lig        -0.0999
     14 C3          8.6949    8.5218   20.3827 C.ar    1  lig        -0.1787
     15 C4          7.7671    8.8072   22.5687 C.ar    1  lig        -0.1787
     16 C5          9.8445    9.8725   21.9251 C.ar    1  lig        -0.1394
     17 C6          7.7217    8.2349   21.3029 C.ar    1  lig         0.1292
     18 C7         11.8440    9.8254   24.4129 C.2     1  lig         0.9321
     19 C8         11.0180   10.7726   22.2624 C.3     1  lig        -0.0452
     20 C9         12.1940   10.0960   22.9675 C.3     1  lig        -0.0740
     21 N1         12.4948    8.8609   22.2446 N.4     1  lig        -0.8252
     22 O1         12.0789   10.7566   25.1798 O.co2   1  lig        -0.7573
     23 O2         11.3772    8.7238   24.8221 O.co2   1  lig        -0.7573
     24 O3          6.7452    7.5016   20.9423 O.3     1  lig        -0.4913
@<TRIPOS>BOND
     1     1    12    1
     2     2    13    1
     3     3    14    1
     4     4    15    1
     5     5    19    1
     6     6    19    1
     7     7    20    1
     8     8    21    1
     9     9    21    1
    10    10    21    1
    11    11    24    1
    12    12    14   ar
    13    12    16   ar
    14    13    15   ar
    15    13    16   ar
    16    14    17   ar
    17    15    17   ar
    18    16    19    1
    19    17    24    1
    20    18    20    1
    21    18    22    1
    22    18    23    1
    23    19    20    1
    24    20    21    1
@<TRIPOS>SUBSTRUCTURE
     1 lig         1 TEMP              0 ****  ****    0 ROOT


########## Name:		ligand
########## HA_RMSDs:		15.7790
########## HA_RMSDh:		15.7387
########## HA_RMSDm:		14.4253
########## Cluster Size:	1
##########    Grid Score:          -18.471283
##########      Grid_vdw:          -14.158617
##########       Grid_es:           -4.312665
##########    Int_energy:            4.459496

@<TRIPOS>MOLECULE
ligand
 24 24 1 0 0
SMALL
No Charge or Current Charge


@<TRIPOS>ATOM
      1 H1          8.0090    7.7120   27.5750 H       1  lig         0.1340
      2 H2          9.1265   11.0549   25.1683 H       1  lig         0.1340
      3 H3          6.5616    6.9419   25.7692 H       1  lig         0.1475
      4 H4          7.6287   10.3095   23.3600 H       1  lig         0.1475
      5 H5          9.9327    9.0305   28.1283 H       1  lig         0.0877
      6 H6         10.4516   10.3982   27.1951 H       1  lig         0.0877
      7 H7          9.5876   10.9999   29.4853 H       1  lig         0.0966
      8 H8          7.7992    9.3308   29.5350 H       1  lig         0.4431
      9 H9          7.1315   10.8345   29.7502 H       1  lig         0.4431
     10 H10         7.0261   10.0885   28.2646 H       1  lig         0.4431
     11 H11         5.2730    8.1404   23.9046 H       1  lig         0.4214
     12 C1          7.9300    8.2934   26.6598 C.ar    1  lig        -0.0999
     13 C2          8.5445   10.1454   25.2979 C.ar    1  lig        -0.0999
     14 C3          7.1233    7.8610   25.6435 C.ar    1  lig        -0.1787
     15 C4          7.7022    9.7393   24.2806 C.ar    1  lig        -0.1787
     16 C5          8.6401    9.4427   26.4935 C.ar    1  lig        -0.1394
     17 C6          6.9735    8.5732   24.4831 C.ar    1  lig         0.1292
     18 C7          8.6932   12.2182   28.0147 C.2     1  lig         0.9321
     19 C8          9.5555    9.9175   27.6060 C.3     1  lig        -0.0452
     20 C9          8.9226   10.8578   28.6322 C.3     1  lig        -0.0740
     21 N1          7.6699   10.2497   29.0791 N.4     1  lig        -0.8252
     22 O1          7.7333   12.2782   27.2495 O.co2   1  lig        -0.7573
     23 O2          9.4385   13.2164   28.2316 O.co2   1  lig        -0.7573
     24 O3          6.2171    8.0988   23.5753 O.3     1  lig        -0.4913
@<TRIPOS>BOND
     1     1    12    1
     2     2    13    1
     3     3    14    1
     4     4    15    1
     5     5    19    1
     6     6    19    1
     7     7    20    1
     8     8    21    1
     9     9    21    1
    10    10    21    1
    11    11    24    1
    12    12    14   ar
    13    12    16   ar
    14    13    15   ar
    15    13    16   ar
    16    14    17   ar
    17    15    17   ar
    18    16    19    1
    19    17    24    1
    20    18    20    1
    21    18    22    1
    22    18    23    1
    23    19    20    1
    24    20    21    1
@<TRIPOS>SUBSTRUCTURE
     1 lig         1 TEMP              0 ****  ****    0 ROOT


########## Name:		ligand
########## HA_RMSDs:		13.6130
########## HA_RMSDh:		13.5619
########## HA_RMSDm:		12.0795
########## Cluster Size:	1
##########    Grid Score:          -18.469662
##########      Grid_vdw:          -17.431234
##########       Grid_es:           -1.038428
##########    Int_energy:            1.213699

@<TRIPOS>MOLECULE
ligand
 24 24 1 0 0
SMALL
No Charge or Current Charge


@<TRIPOS>ATOM
      1 H1          9.3146   11.1914   22.5094 H       1  lig         0.1340
      2 H2          8.8874    8.3104   25.6292 H       1  lig         0.1340
      3 H3          9.8433   12.8788   24.1893 H       1  lig         0.1475
      4 H4          9.3717   10.0209   27.3348 H       1  lig         0.1475
      5 H5          9.4593    8.7037   22.1101 H       1  lig         0.0877
      6 H6          8.9157    7.5886   23.3232 H       1  lig         0.0877
      7 H7          6.9417    9.6598   22.3264 H       1  lig         0.0966
      8 H8          6.4042    8.1165   24.1474 H       1  lig         0.4431
      9 H9          5.4875    7.7185   22.8229 H       1  lig         0.4431
     10 H10         6.8334    6.8121   23.1987 H       1  lig         0.4431
     11 H11         9.3757   13.3162   26.4348 H       1  lig         0.4214
     12 C1          9.3175   10.9234   23.5629 C.ar    1  lig        -0.0999
     13 C2          9.0918    9.3321   25.3178 C.ar    1  lig        -0.0999
     14 C3          9.6190   11.8663   24.5067 C.ar    1  lig        -0.1787
     15 C4          9.3557   10.2857   26.2823 C.ar    1  lig        -0.1787
     16 C5          9.0459    9.6518   23.9657 C.ar    1  lig        -0.1394
     17 C6          9.6105   11.5806   25.8463 C.ar    1  lig         0.1292
     18 C7          7.3496    8.1620   20.8991 C.2     1  lig         0.9321
     19 C8          8.7336    8.5939   22.9245 C.3     1  lig        -0.0452
     20 C9          7.3241    8.6380   22.3334 C.3     1  lig        -0.0740
     21 N1          6.4663    7.7960   23.1664 N.4     1  lig        -0.8252
     22 O1          7.7489    8.9962   20.0896 O.co2   1  lig        -0.7573
     23 O2          6.9640    7.0128   20.5395 O.co2   1  lig        -0.7573
     24 O3          9.9175   12.5066   26.6645 O.3     1  lig        -0.4913
@<TRIPOS>BOND
     1     1    12    1
     2     2    13    1
     3     3    14    1
     4     4    15    1
     5     5    19    1
     6     6    19    1
     7     7    20    1
     8     8    21    1
     9     9    21    1
    10    10    21    1
    11    11    24    1
    12    12    14   ar
    13    12    16   ar
    14    13    15   ar
    15    13    16   ar
    16    14    17   ar
    17    15    17   ar
    18    16    19    1
    19    17    24    1
    20    18    20    1
    21    18    22    1
    22    18    23    1
    23    19    20    1
    24    20    21    1
@<TRIPOS>SUBSTRUCTURE
     1 lig         1 TEMP              0 ****  ****    0 ROOT


########## Name:		ligand
########## HA_RMSDs:		12.8952
########## HA_RMSDh:		12.7780
########## HA_RMSDm:		8.6265
########## Cluster Size:	1
##########    Grid Score:          -18.453018
##########      Grid_vdw:          -16.658775
##########       Grid_es:           -1.794242
##########    Int_energy:            5.330193

@<TRIPOS>MOLECULE
ligand
 24 24 1 0 0
SMALL
No Charge or Current Charge


@<TRIPOS>ATOM
      1 H1         15.2071   17.6143   28.6879 H       1  lig         0.1340
      2 H2         16.2820   13.4907   28.9238 H       1  lig         0.1340
      3 H3         15.5265   17.5221   26.2716 H       1  lig         0.1475
      4 H4         16.6548   13.4034   26.4901 H       1  lig         0.1475
      5 H5         14.4962   15.3137   30.6580 H       1  lig         0.0877
      6 H6         16.1401   14.8504   30.9641 H       1  lig         0.0877
      7 H7         16.4324   17.5847   30.5019 H       1  lig         0.0966
      8 H8         17.3546   16.2279   32.3172 H       1  lig         0.4431
      9 H9         16.6234   17.5665   32.9703 H       1  lig         0.4431
     10 H10        15.8443   16.0949   33.0153 H       1  lig         0.4431
     11 H11        16.6827   14.6524   24.6841 H       1  lig         0.4214
     12 C1         15.5303   16.6878   28.2201 C.ar    1  lig        -0.0999
     13 C2         16.1255   14.3863   28.3272 C.ar    1  lig        -0.0999
     14 C3         15.7049   16.6318   26.8647 C.ar    1  lig        -0.1787
     15 C4         16.3436   14.3290   26.9639 C.ar    1  lig        -0.1787
     16 C5         15.7465   15.5652   28.9589 C.ar    1  lig        -0.1394
     17 C6         16.1349   15.4939   26.2350 C.ar    1  lig         0.1292
     18 C7         14.4860   17.7085   31.3039 C.2     1  lig         0.9321
     19 C8         15.5324   15.6116   30.4598 C.3     1  lig        -0.0452
     20 C9         15.7892   16.9634   31.1268 C.3     1  lig        -0.0740
     21 N1         16.4441   16.7090   32.4094 N.4     1  lig        -0.8252
     22 O1         13.5866   17.0511   31.8231 O.co2   1  lig        -0.7573
     23 O2         14.3085   18.9015   30.9244 O.co2   1  lig        -0.7573
     24 O3         16.2588   15.5135   24.9679 O.3     1  lig        -0.4913
@<TRIPOS>BOND
     1     1    12    1
     2     2    13    1
     3     3    14    1
     4     4    15    1
     5     5    19    1
     6     6    19    1
     7     7    20    1
     8     8    21    1
     9     9    21    1
    10    10    21    1
    11    11    24    1
    12    12    14   ar
    13    12    16   ar
    14    13    15   ar
    15    13    16   ar
    16    14    17   ar
    17    15    17   ar
    18    16    19    1
    19    17    24    1
    20    18    20    1
    21    18    22    1
    22    18    23    1
    23    19    20    1
    24    20    21    1
@<TRIPOS>SUBSTRUCTURE
     1 lig         1 TEMP              0 ****  ****    0 ROOT


########## Name:		ligand
########## HA_RMSDs:		12.8840
########## HA_RMSDh:		12.8290
########## HA_RMSDm:		10.4718
########## Cluster Size:	1
##########    Grid Score:          -18.449341
##########      Grid_vdw:          -17.094412
##########       Grid_es:           -1.354930
##########    Int_energy:            1.073527

@<TRIPOS>MOLECULE
ligand
 24 24 1 0 0
SMALL
No Charge or Current Charge


@<TRIPOS>ATOM
      1 H1         12.7298   11.1614   23.9524 H       1  lig         0.1340
      2 H2          8.7294    9.6796   23.8228 H       1  lig         0.1340
      3 H3         12.9371   10.7067   21.5651 H       1  lig         0.1475
      4 H4          8.9488    9.1715   21.4222 H       1  lig         0.1475
      5 H5          9.9724    9.9300   25.9641 H       1  lig         0.0877
      6 H6         11.5528   10.6433   26.0298 H       1  lig         0.0877
      7 H7          9.3958   12.4705   25.0263 H       1  lig         0.0966
      8 H8         11.7110   13.1483   25.4348 H       1  lig         0.4431
      9 H9         10.7265   13.9360   26.5134 H       1  lig         0.4431
     10 H10        11.6118   12.6167   27.0139 H       1  lig         0.4431
     11 H11        11.5762   10.5302   19.7222 H       1  lig         0.4214
     12 C1         11.8966   10.7198   23.4116 C.ar    1  lig        -0.0999
     13 C2          9.6661    9.8962   23.3146 C.ar    1  lig        -0.0999
     14 C3         12.0082   10.4688   22.0718 C.ar    1  lig        -0.1787
     15 C4          9.7816    9.6014   21.9696 C.ar    1  lig        -0.1787
     16 C5         10.7254   10.4281   24.0409 C.ar    1  lig        -0.1394
     17 C6         10.9942    9.8907   21.3550 C.ar    1  lig         0.1292
     18 C7          8.9880   11.9142   27.0191 C.2     1  lig         0.9321
     19 C8         10.5842   10.7249   25.5218 C.3     1  lig        -0.0452
     20 C9          9.9598   12.0758   25.8727 C.3     1  lig        -0.0740
     21 N1         11.0469   12.9933   26.2119 N.4     1  lig        -0.8252
     22 O1          9.5114   11.6660   28.1031 O.co2   1  lig        -0.7573
     23 O2          7.7332   11.9925   26.8849 O.co2   1  lig        -0.7573
     24 O3         11.1659    9.7025   20.1074 O.3     1  lig        -0.4913
@<TRIPOS>BOND
     1     1    12    1
     2     2    13    1
     3     3    14    1
     4     4    15    1
     5     5    19    1
     6     6    19    1
     7     7    20    1
     8     8    21    1
     9     9    21    1
    10    10    21    1
    11    11    24    1
    12    12    14   ar
    13    12    16   ar
    14    13    15   ar
    15    13    16   ar
    16    14    17   ar
    17    15    17   ar
    18    16    19    1
    19    17    24    1
    20    18    20    1
    21    18    22    1
    22    18    23    1
    23    19    20    1
    24    20    21    1
@<TRIPOS>SUBSTRUCTURE
     1 lig         1 TEMP              0 ****  ****    0 ROOT


########## Name:		ligand
########## HA_RMSDs:		14.0076
########## HA_RMSDh:		13.9407
########## HA_RMSDm:		11.6698
########## Cluster Size:	1
##########    Grid Score:          -18.446371
##########      Grid_vdw:          -16.788046
##########       Grid_es:           -1.658325
##########    Int_energy:            1.387765

@<TRIPOS>MOLECULE
ligand
 24 24 1 0 0
SMALL
No Charge or Current Charge


@<TRIPOS>ATOM
      1 H1          8.7047    8.1452   19.8888 H       1  lig         0.1340
      2 H2          9.6237    9.6427   23.7783 H       1  lig         0.1340
      3 H3         11.0243    8.5211   19.2356 H       1  lig         0.1475
      4 H4         11.9558   10.0715   23.1101 H       1  lig         0.1475
      5 H5          7.1983    9.5666   22.7382 H       1  lig         0.0877
      6 H6          6.9381    8.4845   21.4070 H       1  lig         0.0877
      7 H7          8.3067    7.1720   23.7008 H       1  lig         0.0966
      8 H8          7.3602    6.0317   21.7539 H       1  lig         0.4431
      9 H9          6.5272    5.5559   23.1077 H       1  lig         0.4431
     10 H10         5.8563    6.6796   22.0773 H       1  lig         0.4431
     11 H11        12.8025   10.0733   19.8824 H       1  lig         0.4214
     12 C1          9.4047    8.5733   20.6018 C.ar    1  lig        -0.0999
     13 C2          9.9413    9.4050   22.7658 C.ar    1  lig        -0.0999
     14 C3         10.7074    8.7801   20.2398 C.ar    1  lig        -0.1787
     15 C4         11.2497    9.6553   22.3987 C.ar    1  lig        -0.1787
     16 C5          9.0142    8.8914   21.8663 C.ar    1  lig        -0.1394
     17 C6         11.6182    9.3399   21.0961 C.ar    1  lig         0.1292
     18 C7          6.4726    7.9402   24.4029 C.2     1  lig         0.9321
     19 C8          7.5771    8.6435   22.2840 C.3     1  lig        -0.0452
     20 C9          7.3589    7.4904   23.2641 C.3     1  lig        -0.0740
     21 N1          6.7613    6.3820   22.5205 N.4     1  lig        -0.8252
     22 O1          7.0143    8.6975   25.2052 O.co2   1  lig        -0.7573
     23 O2          5.2782    7.5526   24.5511 O.co2   1  lig        -0.7573
     24 O3         12.8171    9.4866   20.6931 O.3     1  lig        -0.4913
@<TRIPOS>BOND
     1     1    12    1
     2     2    13    1
     3     3    14    1
     4     4    15    1
     5     5    19    1
     6     6    19    1
     7     7    20    1
     8     8    21    1
     9     9    21    1
    10    10    21    1
    11    11    24    1
    12    12    14   ar
    13    12    16   ar
    14    13    15   ar
    15    13    16   ar
    16    14    17   ar
    17    15    17   ar
    18    16    19    1
    19    17    24    1
    20    18    20    1
    21    18    22    1
    22    18    23    1
    23    19    20    1
    24    20    21    1
@<TRIPOS>SUBSTRUCTURE
     1 lig         1 TEMP              0 ****  ****    0 ROOT


########## Name:		ligand
########## HA_RMSDs:		14.8391
########## HA_RMSDh:		14.8257
########## HA_RMSDm:		13.0742
########## Cluster Size:	1
##########    Grid Score:          -18.446110
##########      Grid_vdw:          -16.048746
##########       Grid_es:           -2.397364
##########    Int_energy:            3.191446

@<TRIPOS>MOLECULE
ligand
 24 24 1 0 0
SMALL
No Charge or Current Charge


@<TRIPOS>ATOM
      1 H1         25.6802    6.4380   13.9433 H       1  lig         0.1340
      2 H2         21.9540    4.6639   12.8552 H       1  lig         0.1340
      3 H3         24.9884    8.4912   12.8232 H       1  lig         0.1475
      4 H4         21.2696    6.7176   11.6792 H       1  lig         0.1475
      5 H5         24.7406    4.4272   15.1166 H       1  lig         0.0877
      6 H6         23.4105    3.5448   14.4363 H       1  lig         0.0877
      7 H7         25.0308    2.1954   13.5578 H       1  lig         0.0966
      8 H8         26.7207    3.3303   14.9153 H       1  lig         0.4431
      9 H9         27.3663    3.0059   13.4217 H       1  lig         0.4431
     10 H10        26.8475    4.5475   13.7804 H       1  lig         0.4431
     11 H11        21.8238    8.9121   11.5916 H       1  lig         0.4214
     12 C1         24.7146    6.4838   13.4461 C.ar    1  lig        -0.0999
     13 C2         22.6277    5.5173   12.8350 C.ar    1  lig        -0.0999
     14 C3         24.3219    7.6357   12.8219 C.ar    1  lig        -0.1787
     15 C4         22.2376    6.6623   12.1671 C.ar    1  lig        -0.1787
     16 C5         23.8705    5.4160   13.4497 C.ar    1  lig        -0.1394
     17 C6         23.1257    7.7314   12.1615 C.ar    1  lig         0.1292
     18 C7         25.1659    3.5117   11.9158 C.2     1  lig         0.9321
     19 C8         24.2877    4.1422   14.1598 C.3     1  lig        -0.0452
     20 C9         25.2689    3.2484   13.4007 C.3     1  lig        -0.0740
     21 N1         26.6113    3.5316   13.9071 N.4     1  lig        -0.8252
     22 O1         24.2096    2.9709   11.3649 O.co2   1  lig        -0.7573
     23 O2         26.0054    4.2032   11.2710 O.co2   1  lig        -0.7573
     24 O3         22.8218    8.8420   11.6177 O.3     1  lig        -0.4913
@<TRIPOS>BOND
     1     1    12    1
     2     2    13    1
     3     3    14    1
     4     4    15    1
     5     5    19    1
     6     6    19    1
     7     7    20    1
     8     8    21    1
     9     9    21    1
    10    10    21    1
    11    11    24    1
    12    12    14   ar
    13    12    16   ar
    14    13    15   ar
    15    13    16   ar
    16    14    17   ar
    17    15    17   ar
    18    16    19    1
    19    17    24    1
    20    18    20    1
    21    18    22    1
    22    18    23    1
    23    19    20    1
    24    20    21    1
@<TRIPOS>SUBSTRUCTURE
     1 lig         1 TEMP              0 ****  ****    0 ROOT


########## Name:		ligand
########## HA_RMSDs:		12.2429
########## HA_RMSDh:		12.1666
########## HA_RMSDm:		10.2613
########## Cluster Size:	1
##########    Grid Score:          -18.432772
##########      Grid_vdw:          -17.192375
##########       Grid_es:           -1.240397
##########    Int_energy:            2.469921

@<TRIPOS>MOLECULE
ligand
 24 24 1 0 0
SMALL
No Charge or Current Charge


@<TRIPOS>ATOM
      1 H1         10.4310    8.2371   21.4743 H       1  lig         0.1340
      2 H2          9.9000   11.8808   23.6323 H       1  lig         0.1340
      3 H3          8.1649    7.5820   22.0942 H       1  lig         0.1475
      4 H4          7.6286   11.2033   24.3037 H       1  lig         0.1475
      5 H5         11.9512   10.0282   21.1797 H       1  lig         0.0877
      6 H6         11.7554   11.5844   21.9214 H       1  lig         0.0877
      7 H7         13.4296    9.3414   22.7745 H       1  lig         0.0966
      8 H8         11.5668    8.9691   24.3167 H       1  lig         0.4431
      9 H9         12.8480    9.5912   25.1681 H       1  lig         0.4431
     10 H10        11.5748   10.5808   24.7509 H       1  lig         0.4431
     11 H11         5.9591    9.4032   22.9109 H       1  lig         0.4214
     12 C1          9.8303    8.8930   22.0994 C.ar    1  lig        -0.0999
     13 C2          9.5096   10.9210   23.3023 C.ar    1  lig        -0.0999
     14 C3          8.5573    8.5305   22.4440 C.ar    1  lig        -0.1787
     15 C4          8.2371   10.5471   23.6896 C.ar    1  lig        -0.1787
     16 C5         10.3148   10.0887   22.5332 C.ar    1  lig        -0.1394
     17 C6          7.7732    9.3129   23.2498 C.ar    1  lig         0.1292
     18 C7         13.7436   11.3563   23.3113 C.2     1  lig         0.9321
     19 C8         11.7171   10.5097   22.1363 C.3     1  lig        -0.0452
     20 C9         12.8216   10.1711   23.1380 C.3     1  lig        -0.0740
     21 N1         12.1799    9.7977   24.3979 N.4     1  lig        -0.8252
     22 O1         13.5703   11.9927   24.3484 O.co2   1  lig        -0.7573
     23 O2         14.6068   11.6988   22.4532 O.co2   1  lig        -0.7573
     24 O3          6.5923    8.9166   23.5142 O.3     1  lig        -0.4913
@<TRIPOS>BOND
     1     1    12    1
     2     2    13    1
     3     3    14    1
     4     4    15    1
     5     5    19    1
     6     6    19    1
     7     7    20    1
     8     8    21    1
     9     9    21    1
    10    10    21    1
    11    11    24    1
    12    12    14   ar
    13    12    16   ar
    14    13    15   ar
    15    13    16   ar
    16    14    17   ar
    17    15    17   ar
    18    16    19    1
    19    17    24    1
    20    18    20    1
    21    18    22    1
    22    18    23    1
    23    19    20    1
    24    20    21    1
@<TRIPOS>SUBSTRUCTURE
     1 lig         1 TEMP              0 ****  ****    0 ROOT


########## Name:		ligand
########## HA_RMSDs:		13.4373
########## HA_RMSDh:		13.4010
########## HA_RMSDm:		11.2273
########## Cluster Size:	1
##########    Grid Score:          -18.415840
##########      Grid_vdw:          -16.565334
##########       Grid_es:           -1.850506
##########    Int_energy:            3.298171

@<TRIPOS>MOLECULE
ligand
 24 24 1 0 0
SMALL
No Charge or Current Charge


@<TRIPOS>ATOM
      1 H1          8.2070    9.3683   23.7208 H       1  lig         0.1340
      2 H2         10.3106    9.3462   20.0073 H       1  lig         0.1340
      3 H3          6.6045    7.7880   22.7810 H       1  lig         0.1475
      4 H4          8.6675    7.7889   19.0356 H       1  lig         0.1475
      5 H5         10.7110   11.0840   21.6861 H       1  lig         0.0877
      6 H6          9.8723   11.1312   23.2043 H       1  lig         0.0877
      7 H7         12.1670   10.5694   23.6862 H       1  lig         0.0966
      8 H8         12.7182    9.7879   21.4341 H       1  lig         0.4431
      9 H9         13.1919    8.6351   22.5294 H       1  lig         0.4431
     10 H10        11.7893    8.4192   21.6572 H       1  lig         0.4431
     11 H11         5.9820    6.7199   21.1834 H       1  lig         0.4214
     12 C1          8.3158    9.0353   22.6917 C.ar    1  lig        -0.0999
     13 C2          9.4770    9.0020   20.6149 C.ar    1  lig        -0.0999
     14 C3          7.4217    8.1450   22.1639 C.ar    1  lig        -0.1787
     15 C4          8.5570    8.1338   20.0588 C.ar    1  lig        -0.1787
     16 C5          9.3451    9.4731   21.9161 C.ar    1  lig        -0.1394
     17 C6          7.5046    7.7171   20.8654 C.ar    1  lig         0.1292
     18 C7         11.1046    8.8378   24.2521 C.2     1  lig         0.9321
     19 C8         10.3551   10.4423   22.5006 C.3     1  lig        -0.0452
     20 C9         11.5645    9.8082   23.1883 C.3     1  lig        -0.0740
     21 N1         12.3626    9.1426   22.1594 N.4     1  lig        -0.8252
     22 O1         11.3561    7.6587   24.0132 O.co2   1  lig        -0.7573
     23 O2         10.4813    9.1905   25.2942 O.co2   1  lig        -0.7573
     24 O3          6.6448    6.8748   20.4497 O.3     1  lig        -0.4913
@<TRIPOS>BOND
     1     1    12    1
     2     2    13    1
     3     3    14    1
     4     4    15    1
     5     5    19    1
     6     6    19    1
     7     7    20    1
     8     8    21    1
     9     9    21    1
    10    10    21    1
    11    11    24    1
    12    12    14   ar
    13    12    16   ar
    14    13    15   ar
    15    13    16   ar
    16    14    17   ar
    17    15    17   ar
    18    16    19    1
    19    17    24    1
    20    18    20    1
    21    18    22    1
    22    18    23    1
    23    19    20    1
    24    20    21    1
@<TRIPOS>SUBSTRUCTURE
     1 lig         1 TEMP              0 ****  ****    0 ROOT


########## Name:		ligand
########## HA_RMSDs:		13.9435
########## HA_RMSDh:		13.8962
########## HA_RMSDm:		11.4190
########## Cluster Size:	1
##########    Grid Score:          -18.374180
##########      Grid_vdw:          -17.442867
##########       Grid_es:           -0.931313
##########    Int_energy:            5.206386

@<TRIPOS>MOLECULE
ligand
 24 24 1 0 0
SMALL
No Charge or Current Charge


@<TRIPOS>ATOM
      1 H1         24.7760    9.4709   14.0044 H       1  lig         0.1340
      2 H2         26.1121    5.6275   12.7166 H       1  lig         0.1340
      3 H3         22.5401    8.9238   13.1980 H       1  lig         0.1475
      4 H4         23.8682    5.0876   11.8549 H       1  lig         0.1475
      5 H5         27.6895    7.7095   13.1001 H       1  lig         0.0877
      6 H6         27.0799    8.9964   14.0915 H       1  lig         0.0877
      7 H7         28.3698    7.5468   15.5258 H       1  lig         0.0966
      8 H8         28.2682    5.5847   14.0676 H       1  lig         0.4431
      9 H9         27.8112    5.1359   15.5982 H       1  lig         0.4431
     10 H10        26.6518    5.3740   14.4262 H       1  lig         0.4431
     11 H11        21.2629    7.3915   12.5959 H       1  lig         0.4214
     12 C1         24.5922    8.5102   13.5300 C.ar    1  lig        -0.0999
     13 C2         25.3135    6.3596   12.8110 C.ar    1  lig        -0.0999
     14 C3         23.3381    8.1986   13.0819 C.ar    1  lig        -0.1787
     15 C4         24.0601    6.0500   12.3186 C.ar    1  lig        -0.1787
     16 C5         25.5882    7.5930   13.3904 C.ar    1  lig        -0.1394
     17 C6         23.0656    7.0112   12.4559 C.ar    1  lig         0.1292
     18 C7         26.4034    7.3587   16.2638 C.2     1  lig         0.9321
     19 C8         26.9767    7.9205   13.9058 C.3     1  lig        -0.0452
     20 C9         27.4166    7.1632   15.1593 C.3     1  lig        -0.0740
     21 N1         27.5578    5.7527   14.7998 N.4     1  lig        -0.8252
     22 O1         25.4217    6.6224   16.1945 O.co2   1  lig        -0.7573
     23 O2         26.5246    8.2272   17.1746 O.co2   1  lig        -0.7573
     24 O3         21.8700    6.7855   12.0803 O.3     1  lig        -0.4913
@<TRIPOS>BOND
     1     1    12    1
     2     2    13    1
     3     3    14    1
     4     4    15    1
     5     5    19    1
     6     6    19    1
     7     7    20    1
     8     8    21    1
     9     9    21    1
    10    10    21    1
    11    11    24    1
    12    12    14   ar
    13    12    16   ar
    14    13    15   ar
    15    13    16   ar
    16    14    17   ar
    17    15    17   ar
    18    16    19    1
    19    17    24    1
    20    18    20    1
    21    18    22    1
    22    18    23    1
    23    19    20    1
    24    20    21    1
@<TRIPOS>SUBSTRUCTURE
     1 lig         1 TEMP              0 ****  ****    0 ROOT


########## Name:		ligand
########## HA_RMSDs:		13.0509
########## HA_RMSDh:		12.9800
########## HA_RMSDm:		10.8465
########## Cluster Size:	1
##########    Grid Score:          -18.349991
##########      Grid_vdw:          -17.370626
##########       Grid_es:           -0.979365
##########    Int_energy:            2.521225

@<TRIPOS>MOLECULE
ligand
 24 24 1 0 0
SMALL
No Charge or Current Charge


@<TRIPOS>ATOM
      1 H1         10.0241    8.2490   23.8952 H       1  lig         0.1340
      2 H2          8.9318    9.4760   19.9561 H       1  lig         0.1340
      3 H3          8.9884    6.0824   23.4685 H       1  lig         0.1475
      4 H4          7.8402    7.3078   19.5361 H       1  lig         0.1475
      5 H5         10.4020   10.7995   21.2401 H       1  lig         0.0877
      6 H6          9.4773   11.0439   22.6878 H       1  lig         0.0877
      7 H7         11.4759    9.4453   23.7015 H       1  lig         0.0966
      8 H8         10.7235   11.6341   24.4950 H       1  lig         0.4431
      9 H9         12.3804   11.6394   24.4071 H       1  lig         0.4431
     10 H10        11.4874   12.3857   23.2154 H       1  lig         0.4431
     11 H11         7.0030    5.4972   20.7981 H       1  lig         0.4214
     12 C1          9.5439    8.0581   22.9389 C.ar    1  lig        -0.0999
     13 C2          8.9314    8.7185   20.7363 C.ar    1  lig        -0.0999
     14 C3          8.9671    6.8422   22.6949 C.ar    1  lig        -0.1787
     15 C4          8.3107    7.5080   20.4935 C.ar    1  lig        -0.1787
     16 C5          9.5227    9.0051   21.9613 C.ar    1  lig        -0.1394
     17 C6          8.3292    6.5655   21.5148 C.ar    1  lig         0.1292
     18 C7         12.6651   10.1927   22.1286 C.2     1  lig         0.9321
     19 C8         10.1806   10.3482   22.2143 C.3     1  lig        -0.0452
     20 C9         11.4663   10.3137   23.0413 C.3     1  lig        -0.0740
     21 N1         11.5157   11.5394   23.8375 N.4     1  lig        -0.8252
     22 O1         12.8191    9.0798   21.6302 O.co2   1  lig        -0.7573
     23 O2         13.4730   11.1405   21.9104 O.co2   1  lig        -0.7573
     24 O3          7.8299    5.4052   21.3544 O.3     1  lig        -0.4913
@<TRIPOS>BOND
     1     1    12    1
     2     2    13    1
     3     3    14    1
     4     4    15    1
     5     5    19    1
     6     6    19    1
     7     7    20    1
     8     8    21    1
     9     9    21    1
    10    10    21    1
    11    11    24    1
    12    12    14   ar
    13    12    16   ar
    14    13    15   ar
    15    13    16   ar
    16    14    17   ar
    17    15    17   ar
    18    16    19    1
    19    17    24    1
    20    18    20    1
    21    18    22    1
    22    18    23    1
    23    19    20    1
    24    20    21    1
@<TRIPOS>SUBSTRUCTURE
     1 lig         1 TEMP              0 ****  ****    0 ROOT


########## Name:		ligand
########## HA_RMSDs:		13.3985
########## HA_RMSDh:		13.3228
########## HA_RMSDm:		11.1364
########## Cluster Size:	1
##########    Grid Score:          -18.341805
##########      Grid_vdw:          -19.044033
##########       Grid_es:            0.702229
##########    Int_energy:            2.591763

@<TRIPOS>MOLECULE
ligand
 24 24 1 0 0
SMALL
No Charge or Current Charge


@<TRIPOS>ATOM
      1 H1          8.9084    8.7424   20.1018 H       1  lig         0.1340
      2 H2          8.2322    9.6677   24.2131 H       1  lig         0.1340
      3 H3          6.9189    7.3316   20.1295 H       1  lig         0.1475
      4 H4          6.2504    8.2051   24.2616 H       1  lig         0.1475
      5 H5         10.0103   10.6103   21.1454 H       1  lig         0.0877
      6 H6          9.8009   11.0237   22.8175 H       1  lig         0.0877
      7 H7         11.0902    8.4531   22.7995 H       1  lig         0.0966
      8 H8         11.3222   10.2643   24.4282 H       1  lig         0.4431
      9 H9         12.8253    9.8809   23.8392 H       1  lig         0.4431
     10 H10        12.0391   11.2376   23.2773 H       1  lig         0.4431
     11 H11         5.1963    6.6487   23.0435 H       1  lig         0.4214
     12 C1          8.3390    8.6284   21.0208 C.ar    1  lig        -0.0999
     13 C2          7.9385    9.1363   23.3108 C.ar    1  lig        -0.0999
     14 C3          7.2199    7.8423   21.0378 C.ar    1  lig        -0.1787
     15 C4          6.8294    8.3132   23.3500 C.ar    1  lig        -0.1787
     16 C5          8.7072    9.2746   22.1608 C.ar    1  lig        -0.1394
     17 C6          6.4860    7.6494   22.1781 C.ar    1  lig         0.1292
     18 C7         12.1388    9.4299   21.2525 C.2     1  lig         0.9321
     19 C8          9.9334   10.1673   22.1452 C.3     1  lig        -0.0452
     20 C9         11.2589    9.4826   22.4804 C.3     1  lig        -0.0740
     21 N1         11.8880   10.2379   23.5632 N.4     1  lig        -0.8252
     22 O1         11.5932    8.9723   20.2507 O.co2   1  lig        -0.7573
     23 O2         13.3500    9.7927   21.2473 O.co2   1  lig        -0.7573
     24 O3          5.4470    6.9162   22.1123 O.3     1  lig        -0.4913
@<TRIPOS>BOND
     1     1    12    1
     2     2    13    1
     3     3    14    1
     4     4    15    1
     5     5    19    1
     6     6    19    1
     7     7    20    1
     8     8    21    1
     9     9    21    1
    10    10    21    1
    11    11    24    1
    12    12    14   ar
    13    12    16   ar
    14    13    15   ar
    15    13    16   ar
    16    14    17   ar
    17    15    17   ar
    18    16    19    1
    19    17    24    1
    20    18    20    1
    21    18    22    1
    22    18    23    1
    23    19    20    1
    24    20    21    1
@<TRIPOS>SUBSTRUCTURE
     1 lig         1 TEMP              0 ****  ****    0 ROOT


########## Name:		ligand
########## HA_RMSDs:		13.0300
########## HA_RMSDh:		13.0300
########## HA_RMSDm:		11.0646
########## Cluster Size:	1
##########    Grid Score:          -18.339413
##########      Grid_vdw:          -17.996529
##########       Grid_es:           -0.342884
##########    Int_energy:            2.132760

@<TRIPOS>MOLECULE
ligand
 24 24 1 0 0
SMALL
No Charge or Current Charge


@<TRIPOS>ATOM
      1 H1          7.9963    9.7574   23.7512 H       1  lig         0.1340
      2 H2         10.7068    9.6735   20.4554 H       1  lig         0.1340
      3 H3          9.5049   11.2865   24.9064 H       1  lig         0.1475
      4 H4         12.2588   11.1782   21.6371 H       1  lig         0.1475
      5 H5          7.3148    9.0837   21.3857 H       1  lig         0.0877
      6 H6          8.5414    8.6553   20.2356 H       1  lig         0.0877
      7 H7          8.2694    7.1984   22.9078 H       1  lig         0.0966
      8 H8         10.3796    6.9951   21.6860 H       1  lig         0.4431
      9 H9          9.5670    5.5516   21.5908 H       1  lig         0.4431
     10 H10         9.5584    6.5919   20.2900 H       1  lig         0.4431
     11 H11        12.0510   12.8002   23.3881 H       1  lig         0.4214
     12 C1          8.9293   10.0556   23.2797 C.ar    1  lig        -0.0999
     13 C2         10.4514   10.0295   21.4508 C.ar    1  lig        -0.0999
     14 C3          9.7746   10.9172   23.9230 C.ar    1  lig        -0.1787
     15 C4         11.3315   10.8677   22.1080 C.ar    1  lig        -0.1787
     16 C5          9.2678    9.6024   22.0417 C.ar    1  lig        -0.1394
     17 C6         10.9716   11.3007   23.3788 C.ar    1  lig         0.1292
     18 C7          7.0482    6.5267   21.3253 C.2     1  lig         0.9321
     19 C8          8.3253    8.6651   21.3108 C.3     1  lig        -0.0452
     20 C9          8.2964    7.2227   21.8174 C.3     1  lig        -0.0740
     21 N1          9.5086    6.5592   21.3390 N.4     1  lig        -0.8252
     22 O1          6.6525    6.9025   20.2240 O.co2   1  lig        -0.7573
     23 O2          6.4300    5.6496   21.9941 O.co2   1  lig        -0.7573
     24 O3         11.6983   12.1185   24.0304 O.3     1  lig        -0.4913
@<TRIPOS>BOND
     1     1    12    1
     2     2    13    1
     3     3    14    1
     4     4    15    1
     5     5    19    1
     6     6    19    1
     7     7    20    1
     8     8    21    1
     9     9    21    1
    10    10    21    1
    11    11    24    1
    12    12    14   ar
    13    12    16   ar
    14    13    15   ar
    15    13    16   ar
    16    14    17   ar
    17    15    17   ar
    18    16    19    1
    19    17    24    1
    20    18    20    1
    21    18    22    1
    22    18    23    1
    23    19    20    1
    24    20    21    1
@<TRIPOS>SUBSTRUCTURE
     1 lig         1 TEMP              0 ****  ****    0 ROOT


########## Name:		ligand
########## HA_RMSDs:		13.7457
########## HA_RMSDh:		13.6888
########## HA_RMSDm:		9.4654
########## Cluster Size:	1
##########    Grid Score:          -18.338331
##########      Grid_vdw:          -16.589970
##########       Grid_es:           -1.748362
##########    Int_energy:            2.691876

@<TRIPOS>MOLECULE
ligand
 24 24 1 0 0
SMALL
No Charge or Current Charge


@<TRIPOS>ATOM
      1 H1         16.1829   17.1184   29.0654 H       1  lig         0.1340
      2 H2         13.2449   14.0229   29.1114 H       1  lig         0.1340
      3 H3         17.0139   16.2484   26.9437 H       1  lig         0.1475
      4 H4         14.1111   13.1091   26.9939 H       1  lig         0.1475
      5 H5         14.0487   17.2455   30.4357 H       1  lig         0.0877
      6 H6         13.1220   15.8074   30.7247 H       1  lig         0.0877
      7 H7         16.0110   16.2273   31.6460 H       1  lig         0.0966
      8 H8         15.4262   13.8986   31.1750 H       1  lig         0.4431
      9 H9         15.5242   14.1019   32.8188 H       1  lig         0.4431
     10 H10        14.0319   14.0419   32.0812 H       1  lig         0.4431
     11 H11        16.9614   14.7629   25.5557 H       1  lig         0.4214
     12 C1         15.7244   16.2362   28.6258 C.ar    1  lig        -0.0999
     13 C2         14.0900   14.5066   28.6272 C.ar    1  lig        -0.0999
     14 C3         16.1848   15.7494   27.4335 C.ar    1  lig        -0.1787
     15 C4         14.5728   13.9826   27.4433 C.ar    1  lig        -0.1787
     16 C5         14.6775   15.6119   29.2318 C.ar    1  lig        -0.1394
     17 C6         15.6547   14.6268   26.8549 C.ar    1  lig         0.1292
     18 C7         14.4179   16.5746   32.9832 C.2     1  lig         0.9321
     19 C8         14.1449   16.1587   30.5426 C.3     1  lig        -0.0452
     20 C9         14.9920   15.8617   31.7804 C.3     1  lig        -0.0740
     21 N1         15.0091   14.4117   31.9698 N.4     1  lig        -0.8252
     22 O1         13.2001   16.7376   32.9491 O.co2   1  lig        -0.7573
     23 O2         15.1233   17.0043   33.9406 O.co2   1  lig        -0.7573
     24 O3         16.1253   14.2431   25.7356 O.3     1  lig        -0.4913
@<TRIPOS>BOND
     1     1    12    1
     2     2    13    1
     3     3    14    1
     4     4    15    1
     5     5    19    1
     6     6    19    1
     7     7    20    1
     8     8    21    1
     9     9    21    1
    10    10    21    1
    11    11    24    1
    12    12    14   ar
    13    12    16   ar
    14    13    15   ar
    15    13    16   ar
    16    14    17   ar
    17    15    17   ar
    18    16    19    1
    19    17    24    1
    20    18    20    1
    21    18    22    1
    22    18    23    1
    23    19    20    1
    24    20    21    1
@<TRIPOS>SUBSTRUCTURE
     1 lig         1 TEMP              0 ****  ****    0 ROOT


########## Name:		ligand
########## HA_RMSDs:		15.4258
########## HA_RMSDh:		15.3726
########## HA_RMSDm:		13.3211
########## Cluster Size:	1
##########    Grid Score:          -18.329441
##########      Grid_vdw:          -15.804987
##########       Grid_es:           -2.524454
##########    Int_energy:            1.863462

@<TRIPOS>MOLECULE
ligand
 24 24 1 0 0
SMALL
No Charge or Current Charge


@<TRIPOS>ATOM
      1 H1          6.3932    7.3094   20.3870 H       1  lig         0.1340
      2 H2          8.1259    8.8955   23.9504 H       1  lig         0.1340
      3 H3          8.3497    8.0654   19.1423 H       1  lig         0.1475
      4 H4         10.0819    9.7059   22.6908 H       1  lig         0.1475
      5 H5          5.9768    8.0310   24.0269 H       1  lig         0.0877
      6 H6          4.9933    7.9931   22.5980 H       1  lig         0.0877
      7 H7          5.9687    5.5840   22.2049 H       1  lig         0.0966
      8 H8          3.6938    6.1147   22.9332 H       1  lig         0.4431
      9 H9          4.2252    4.7844   23.7705 H       1  lig         0.4431
     10 H10         4.2126    6.2763   24.5114 H       1  lig         0.4431
     11 H11        10.0439    9.2311   19.1384 H       1  lig         0.4214
     12 C1          7.1908    7.8384   20.9024 C.ar    1  lig        -0.0999
     13 C2          8.1791    8.7234   22.8779 C.ar    1  lig        -0.0999
     14 C3          8.2916    8.2586   20.2079 C.ar    1  lig        -0.1787
     15 C4          9.2771    9.1876   22.1792 C.ar    1  lig        -0.1787
     16 C5          7.1270    8.0752   22.2413 C.ar    1  lig        -0.1394
     17 C6          9.3090    8.9503   20.8101 C.ar    1  lig         0.1292
     18 C7          6.8030    5.5479   24.1413 C.2     1  lig         0.9321
     19 C8          5.9209    7.5919   23.0240 C.3     1  lig        -0.0452
     20 C9          5.7808    6.0754   23.1607 C.3     1  lig        -0.0740
     21 N1          4.4150    5.7930   23.6006 N.4     1  lig        -0.8252
     22 O1          7.9279    5.3885   23.6725 O.co2   1  lig        -0.7573
     23 O2          6.5319    5.2580   25.3418 O.co2   1  lig        -0.7573
     24 O3         10.3091    9.2948   20.1013 O.3     1  lig        -0.4913
@<TRIPOS>BOND
     1     1    12    1
     2     2    13    1
     3     3    14    1
     4     4    15    1
     5     5    19    1
     6     6    19    1
     7     7    20    1
     8     8    21    1
     9     9    21    1
    10    10    21    1
    11    11    24    1
    12    12    14   ar
    13    12    16   ar
    14    13    15   ar
    15    13    16   ar
    16    14    17   ar
    17    15    17   ar
    18    16    19    1
    19    17    24    1
    20    18    20    1
    21    18    22    1
    22    18    23    1
    23    19    20    1
    24    20    21    1
@<TRIPOS>SUBSTRUCTURE
     1 lig         1 TEMP              0 ****  ****    0 ROOT


########## Name:		ligand
########## HA_RMSDs:		12.7639
########## HA_RMSDh:		12.6903
########## HA_RMSDm:		10.7942
########## Cluster Size:	1
##########    Grid Score:          -18.319971
##########      Grid_vdw:          -17.489632
##########       Grid_es:           -0.830340
##########    Int_energy:            2.171104

@<TRIPOS>MOLECULE
ligand
 24 24 1 0 0
SMALL
No Charge or Current Charge


@<TRIPOS>ATOM
      1 H1         11.0101   11.1260   21.8450 H       1  lig         0.1340
      2 H2          7.8401   10.4931   24.6318 H       1  lig         0.1340
      3 H3         10.0773    9.3647   20.4391 H       1  lig         0.1475
      4 H4          6.9208    8.6793   23.2411 H       1  lig         0.1475
      5 H5         10.6923   12.6440   23.5717 H       1  lig         0.0877
      6 H6          9.2646   12.6763   24.5572 H       1  lig         0.0877
      7 H7         10.8744   10.4658   25.4949 H       1  lig         0.0966
      8 H8          9.3070   11.8490   26.7665 H       1  lig         0.4431
      9 H9         10.7990   11.9334   27.4875 H       1  lig         0.4431
     10 H10        10.2695   13.1927   26.5344 H       1  lig         0.4431
     11 H11         7.0412    8.0796   20.9314 H       1  lig         0.4214
     12 C1         10.1180   10.5939   22.1654 C.ar    1  lig        -0.0999
     13 C2          8.3377   10.2289   23.7016 C.ar    1  lig        -0.0999
     14 C3          9.5896    9.6095   21.3763 C.ar    1  lig        -0.1787
     15 C4          7.8182    9.2058   22.9318 C.ar    1  lig        -0.1787
     16 C5          9.4968   10.9037   23.3363 C.ar    1  lig        -0.1394
     17 C6          8.4821    8.8957   21.7508 C.ar    1  lig         0.1292
     18 C7         12.3261   11.9747   25.2444 C.2     1  lig         0.9321
     19 C8         10.0621   12.0101   24.2064 C.3     1  lig        -0.0452
     20 C9         10.8842   11.5536   25.4122 C.3     1  lig        -0.0740
     21 N1         10.2850   12.1447   26.6081 N.4     1  lig        -0.8252
     22 O1         12.8444   11.6176   24.1887 O.co2   1  lig        -0.7573
     23 O2         12.9718   12.6145   26.1232 O.co2   1  lig        -0.7573
     24 O3          8.0389    8.0051   20.9560 O.3     1  lig        -0.4913
@<TRIPOS>BOND
     1     1    12    1
     2     2    13    1
     3     3    14    1
     4     4    15    1
     5     5    19    1
     6     6    19    1
     7     7    20    1
     8     8    21    1
     9     9    21    1
    10    10    21    1
    11    11    24    1
    12    12    14   ar
    13    12    16   ar
    14    13    15   ar
    15    13    16   ar
    16    14    17   ar
    17    15    17   ar
    18    16    19    1
    19    17    24    1
    20    18    20    1
    21    18    22    1
    22    18    23    1
    23    19    20    1
    24    20    21    1
@<TRIPOS>SUBSTRUCTURE
     1 lig         1 TEMP              0 ****  ****    0 ROOT


########## Name:		ligand
########## HA_RMSDs:		13.4324
########## HA_RMSDh:		13.3332
########## HA_RMSDm:		11.2494
########## Cluster Size:	1
##########    Grid Score:          -18.316147
##########      Grid_vdw:          -16.315651
##########       Grid_es:           -2.000497
##########    Int_energy:            2.219624

@<TRIPOS>MOLECULE
ligand
 24 24 1 0 0
SMALL
No Charge or Current Charge


@<TRIPOS>ATOM
      1 H1          9.2989    9.9810   19.9175 H       1  lig         0.1340
      2 H2          9.7541    8.0190   23.6803 H       1  lig         0.1340
      3 H3          7.7894    8.1998   19.2122 H       1  lig         0.1475
      4 H4          8.2698    6.1909   22.9562 H       1  lig         0.1475
      5 H5         11.5946    9.8687   22.1408 H       1  lig         0.0877
      6 H6         10.4707   11.0874   21.6284 H       1  lig         0.0877
      7 H7          9.6126   10.0978   24.2304 H       1  lig         0.0966
      8 H8          9.1498   12.2794   23.2238 H       1  lig         0.4431
      9 H9          9.9465   12.5131   24.6603 H       1  lig         0.4431
     10 H10        10.7773   12.6495   23.2231 H       1  lig         0.4431
     11 H11         6.4466    6.0588   21.2786 H       1  lig         0.4214
     12 C1          9.0869    9.1538   20.5901 C.ar    1  lig        -0.0999
     13 C2          9.3202    8.0465   22.6835 C.ar    1  lig        -0.0999
     14 C3          8.2366    8.1564   20.1992 C.ar    1  lig        -0.1787
     15 C4          8.4943    7.0132   22.2842 C.ar    1  lig        -0.1787
     16 C5          9.6382    9.0995   21.8335 C.ar    1  lig        -0.1394
     17 C6          7.9598    7.0824   21.0031 C.ar    1  lig         0.1292
     18 C7         11.6775   10.4288   24.5020 C.2     1  lig         0.9321
     19 C8         10.5638   10.2134   22.2845 C.3     1  lig        -0.0452
     20 C9         10.3980   10.6700   23.7343 C.3     1  lig        -0.0740
     21 N1         10.0387   12.0875   23.7156 N.4     1  lig        -0.8252
     22 O1         12.1482   11.4286   25.0401 O.co2   1  lig        -0.7573
     23 O2         12.2484    9.3025   24.5683 O.co2   1  lig        -0.7573
     24 O3          7.1456    6.2012   20.5766 O.3     1  lig        -0.4913
@<TRIPOS>BOND
     1     1    12    1
     2     2    13    1
     3     3    14    1
     4     4    15    1
     5     5    19    1
     6     6    19    1
     7     7    20    1
     8     8    21    1
     9     9    21    1
    10    10    21    1
    11    11    24    1
    12    12    14   ar
    13    12    16   ar
    14    13    15   ar
    15    13    16   ar
    16    14    17   ar
    17    15    17   ar
    18    16    19    1
    19    17    24    1
    20    18    20    1
    21    18    22    1
    22    18    23    1
    23    19    20    1
    24    20    21    1
@<TRIPOS>SUBSTRUCTURE
     1 lig         1 TEMP              0 ****  ****    0 ROOT


########## Name:		ligand
########## HA_RMSDs:		14.1448
########## HA_RMSDh:		14.1246
########## HA_RMSDm:		12.1952
########## Cluster Size:	1
##########    Grid Score:          -18.283154
##########      Grid_vdw:          -16.182785
##########       Grid_es:           -2.100369
##########    Int_energy:            3.455254

@<TRIPOS>MOLECULE
ligand
 24 24 1 0 0
SMALL
No Charge or Current Charge


@<TRIPOS>ATOM
      1 H1          9.2168   10.4339   23.9184 H       1  lig         0.1340
      2 H2          7.1835    7.7697   21.2759 H       1  lig         0.1340
      3 H3         11.0310   10.6001   22.2967 H       1  lig         0.1475
      4 H4          9.0350    7.8938   19.6556 H       1  lig         0.1475
      5 H5          6.8124    9.9769   24.1389 H       1  lig         0.0877
      6 H6          6.0127    8.7590   23.1966 H       1  lig         0.0877
      7 H7          6.2088    7.4765   25.0767 H       1  lig         0.0966
      8 H8          6.9570    9.4333   26.3408 H       1  lig         0.4431
      9 H9          7.8306    8.1125   26.8361 H       1  lig         0.4431
     10 H10         8.5195    9.2160   25.7958 H       1  lig         0.4431
     11 H11        11.7787   10.0671   20.4988 H       1  lig         0.4214
     12 C1          9.1674    9.8677   22.9918 C.ar    1  lig        -0.0999
     13 C2          8.0482    8.3899   21.4998 C.ar    1  lig        -0.0999
     14 C3         10.1808    9.9633   22.0782 C.ar    1  lig        -0.1787
     15 C4          9.0846    8.4477   20.5876 C.ar    1  lig        -0.1787
     16 C5          8.0982    9.0743   22.7087 C.ar    1  lig        -0.1394
     17 C6         10.1734    9.2495   20.9092 C.ar    1  lig         0.1292
     18 C7          8.1307    6.9038   24.4248 C.2     1  lig         0.9321
     19 C8          6.9587    8.9806   23.7055 C.3     1  lig        -0.0452
     20 C9          7.1501    7.9757   24.8419 C.3     1  lig        -0.0740
     21 N1          7.6227    8.7135   26.0128 N.4     1  lig        -0.8252
     22 O1          9.2857    7.0919   24.8006 O.co2   1  lig        -0.7573
     23 O2          7.8119    5.9046   23.7185 O.co2   1  lig        -0.7573
     24 O3         11.1448    9.4029   20.1004 O.3     1  lig        -0.4913
@<TRIPOS>BOND
     1     1    12    1
     2     2    13    1
     3     3    14    1
     4     4    15    1
     5     5    19    1
     6     6    19    1
     7     7    20    1
     8     8    21    1
     9     9    21    1
    10    10    21    1
    11    11    24    1
    12    12    14   ar
    13    12    16   ar
    14    13    15   ar
    15    13    16   ar
    16    14    17   ar
    17    15    17   ar
    18    16    19    1
    19    17    24    1
    20    18    20    1
    21    18    22    1
    22    18    23    1
    23    19    20    1
    24    20    21    1
@<TRIPOS>SUBSTRUCTURE
     1 lig         1 TEMP              0 ****  ****    0 ROOT


########## Name:		ligand
########## HA_RMSDs:		15.2844
########## HA_RMSDh:		15.2403
########## HA_RMSDm:		13.0184
########## Cluster Size:	1
##########    Grid Score:          -18.281168
##########      Grid_vdw:          -12.074650
##########       Grid_es:           -6.206519
##########    Int_energy:            3.352383

@<TRIPOS>MOLECULE
ligand
 24 24 1 0 0
SMALL
No Charge or Current Charge


@<TRIPOS>ATOM
      1 H1         10.8947   11.4117   26.2941 H       1  lig         0.1340
      2 H2          8.2630    8.1845   27.2296 H       1  lig         0.1340
      3 H3         10.0919   11.3513   23.9918 H       1  lig         0.1475
      4 H4          7.4842    8.0850   24.8945 H       1  lig         0.1475
      5 H5         10.2343    8.7976   28.6849 H       1  lig         0.0877
      6 H6         11.1413   10.2482   28.3958 H       1  lig         0.0877
      7 H7          9.8314   11.1402   30.0414 H       1  lig         0.0966
      8 H8          8.9494    8.9166   30.5556 H       1  lig         0.4431
      9 H9          7.7158   10.0199   30.6733 H       1  lig         0.4431
     10 H10         7.8312    9.0505   29.3237 H       1  lig         0.4431
     11 H11         8.1986   10.7115   22.8452 H       1  lig         0.4214
     12 C1         10.1524   10.6743   25.9994 C.ar    1  lig        -0.0999
     13 C2          8.6723    8.8795   26.5002 C.ar    1  lig        -0.0999
     14 C3          9.6965   10.6417   24.7103 C.ar    1  lig        -0.1787
     15 C4          8.2340    8.8114   25.1915 C.ar    1  lig        -0.1787
     16 C5          9.6461    9.7877   26.8996 C.ar    1  lig        -0.1394
     17 C6          8.7809    9.7147   24.2878 C.ar    1  lig         0.1292
     18 C7          8.3900   11.6002   28.5724 C.2     1  lig         0.9321
     19 C8         10.1284    9.8319   28.3371 C.3     1  lig        -0.0452
     20 C9          9.2308   10.5884   29.3168 C.3     1  lig        -0.0740
     21 N1          8.4016    9.6039   30.0110 N.4     1  lig        -0.8252
     22 O1          8.9636   12.6580   28.3224 O.co2   1  lig        -0.7573
     23 O2          7.1824   11.4030   28.2537 O.co2   1  lig        -0.7573
     24 O3          8.3919    9.7570   23.0761 O.3     1  lig        -0.4913
@<TRIPOS>BOND
     1     1    12    1
     2     2    13    1
     3     3    14    1
     4     4    15    1
     5     5    19    1
     6     6    19    1
     7     7    20    1
     8     8    21    1
     9     9    21    1
    10    10    21    1
    11    11    24    1
    12    12    14   ar
    13    12    16   ar
    14    13    15   ar
    15    13    16   ar
    16    14    17   ar
    17    15    17   ar
    18    16    19    1
    19    17    24    1
    20    18    20    1
    21    18    22    1
    22    18    23    1
    23    19    20    1
    24    20    21    1
@<TRIPOS>SUBSTRUCTURE
     1 lig         1 TEMP              0 ****  ****    0 ROOT


########## Name:		ligand
########## HA_RMSDs:		12.9379
########## HA_RMSDh:		12.8554
########## HA_RMSDm:		8.8185
########## Cluster Size:	1
##########    Grid Score:          -18.267384
##########      Grid_vdw:          -13.707304
##########       Grid_es:           -4.560079
##########    Int_energy:            2.098405

@<TRIPOS>MOLECULE
ligand
 24 24 1 0 0
SMALL
No Charge or Current Charge


@<TRIPOS>ATOM
      1 H1         18.1284   14.7678   28.4381 H       1  lig         0.1340
      2 H2         15.0019   17.1691   30.0737 H       1  lig         0.1340
      3 H3         17.5675   15.6127   26.2199 H       1  lig         0.1475
      4 H4         14.3978   17.9882   27.8303 H       1  lig         0.1475
      5 H5         16.1017   15.6212   31.4407 H       1  lig         0.0877
      6 H6         17.0070   14.2949   30.7835 H       1  lig         0.0877
      7 H7         19.0599   15.8487   30.6958 H       1  lig         0.0966
      8 H8         18.6448   14.2123   32.4669 H       1  lig         0.4431
      9 H9         19.3255   15.5669   33.1413 H       1  lig         0.4431
     10 H10        17.6865   15.3071   33.2849 H       1  lig         0.4431
     11 H11        16.5888   17.1882   25.1823 H       1  lig         0.4214
     12 C1         17.3052   15.4677   28.3182 C.ar    1  lig        -0.0999
     13 C2         15.5618   16.8201   29.2092 C.ar    1  lig        -0.0999
     14 C3         16.9921   15.9472   27.0761 C.ar    1  lig        -0.1787
     15 C4         15.2110   17.2802   27.9544 C.ar    1  lig        -0.1787
     16 C5         16.5860   15.8979   29.3908 C.ar    1  lig        -0.1394
     17 C6         15.9482   16.8106   26.8737 C.ar    1  lig         0.1292
     18 C7         18.0546   17.4409   31.6452 C.2     1  lig         0.9321
     19 C8         16.9414   15.3896   30.7751 C.3     1  lig        -0.0452
     20 C9         18.2217   15.9614   31.3851 C.3     1  lig        -0.0740
     21 N1         18.4943   15.2240   32.6182 N.4     1  lig        -0.8252
     22 O1         17.1205   17.7277   32.3907 O.co2   1  lig        -0.7573
     23 O2         18.7876   18.3276   31.1204 O.co2   1  lig        -0.7573
     24 O3         15.7275   17.2265   25.6907 O.3     1  lig        -0.4913
@<TRIPOS>BOND
     1     1    12    1
     2     2    13    1
     3     3    14    1
     4     4    15    1
     5     5    19    1
     6     6    19    1
     7     7    20    1
     8     8    21    1
     9     9    21    1
    10    10    21    1
    11    11    24    1
    12    12    14   ar
    13    12    16   ar
    14    13    15   ar
    15    13    16   ar
    16    14    17   ar
    17    15    17   ar
    18    16    19    1
    19    17    24    1
    20    18    20    1
    21    18    22    1
    22    18    23    1
    23    19    20    1
    24    20    21    1
@<TRIPOS>SUBSTRUCTURE
     1 lig         1 TEMP              0 ****  ****    0 ROOT


########## Name:		ligand
########## HA_RMSDs:		13.2386
########## HA_RMSDh:		13.1510
########## HA_RMSDm:		10.8195
########## Cluster Size:	1
##########    Grid Score:          -18.264162
##########      Grid_vdw:          -18.430794
##########       Grid_es:            0.166631
##########    Int_energy:            1.346643

@<TRIPOS>MOLECULE
ligand
 24 24 1 0 0
SMALL
No Charge or Current Charge


@<TRIPOS>ATOM
      1 H1          9.9503    9.5284   20.2982 H       1  lig         0.1340
      2 H2          7.8836    8.6650   23.9312 H       1  lig         0.1340
      3 H3          8.6470    7.7922   19.1865 H       1  lig         0.1475
      4 H4          6.5993    6.8762   22.8268 H       1  lig         0.1475
      5 H5          9.9220   11.1104   22.1745 H       1  lig         0.0877
      6 H6          9.2419   10.7043   23.7182 H       1  lig         0.0877
      7 H7         11.2724    8.7898   23.4682 H       1  lig         0.0966
      8 H8         10.6943   10.1726   25.4023 H       1  lig         0.4431
      9 H9         12.3230   10.3096   25.1164 H       1  lig         0.4431
     10 H10        11.2949   11.5303   24.6395 H       1  lig         0.4431
     11 H11         7.2086    6.3812   19.3133 H       1  lig         0.4214
     12 C1          9.2243    8.9508   20.8648 C.ar    1  lig        -0.0999
     13 C2          8.0544    8.4576   22.8775 C.ar    1  lig        -0.0999
     14 C3          8.4883    7.9803   20.2427 C.ar    1  lig        -0.1787
     15 C4          7.3339    7.4479   22.2687 C.ar    1  lig        -0.1787
     16 C5          9.0147    9.1895   22.1884 C.ar    1  lig        -0.1394
     17 C6          7.5807    7.2111   20.9215 C.ar    1  lig         0.1292
     18 C7         12.2537   10.3228   22.4034 C.2     1  lig         0.9321
     19 C8          9.8095   10.2799   22.8812 C.3     1  lig        -0.0452
     20 C9         11.1952    9.8749   23.3850 C.3     1  lig        -0.0740
     21 N1         11.3859   10.4853   24.7002 N.4     1  lig        -0.8252
     22 O1         12.6917   11.4537   22.6029 O.co2   1  lig        -0.7573
     23 O2         12.6450    9.6165   21.4304 O.co2   1  lig        -0.7573
     24 O3          6.9211    6.3376   20.2709 O.3     1  lig        -0.4913
@<TRIPOS>BOND
     1     1    12    1
     2     2    13    1
     3     3    14    1
     4     4    15    1
     5     5    19    1
     6     6    19    1
     7     7    20    1
     8     8    21    1
     9     9    21    1
    10    10    21    1
    11    11    24    1
    12    12    14   ar
    13    12    16   ar
    14    13    15   ar
    15    13    16   ar
    16    14    17   ar
    17    15    17   ar
    18    16    19    1
    19    17    24    1
    20    18    20    1
    21    18    22    1
    22    18    23    1
    23    19    20    1
    24    20    21    1
@<TRIPOS>SUBSTRUCTURE
     1 lig         1 TEMP              0 ****  ****    0 ROOT


########## Name:		ligand
########## HA_RMSDs:		9.7153
########## HA_RMSDh:		9.6426
########## HA_RMSDm:		7.3366
########## Cluster Size:	1
##########    Grid Score:          -18.258076
##########      Grid_vdw:          -13.848412
##########       Grid_es:           -4.409664
##########    Int_energy:            3.073305

@<TRIPOS>MOLECULE
ligand
 24 24 1 0 0
SMALL
No Charge or Current Charge


@<TRIPOS>ATOM
      1 H1         17.0725   14.9921   24.8123 H       1  lig         0.1340
      2 H2         15.0264   12.4111   27.5265 H       1  lig         0.1340
      3 H3         16.0204   16.9068   25.8965 H       1  lig         0.1475
      4 H4         13.9217   14.3371   28.5938 H       1  lig         0.1475
      5 H5         17.7668   12.6968   25.1143 H       1  lig         0.0877
      6 H6         16.9350   11.5864   26.1564 H       1  lig         0.0877
      7 H7         16.4470   10.8294   23.9526 H       1  lig         0.0966
      8 H8         17.1859   12.8758   22.8330 H       1  lig         0.4431
      9 H9         15.6965   12.4505   22.2382 H       1  lig         0.4431
     10 H10        15.8199   13.6809   23.3541 H       1  lig         0.4431
     11 H11        13.7464   16.5141   28.5040 H       1  lig         0.4214
     12 C1         16.3798   14.8344   25.6350 C.ar    1  lig        -0.0999
     13 C2         15.2347   13.4147   27.1634 C.ar    1  lig        -0.0999
     14 C3         15.7926   15.9066   26.2484 C.ar    1  lig        -0.1787
     15 C4         14.6050   14.4880   27.7642 C.ar    1  lig        -0.1787
     16 C5         16.0978   13.5816   26.0865 C.ar    1  lig        -0.1394
     17 C6         14.8949   15.7550   27.2718 C.ar    1  lig         0.1292
     18 C7         14.5726   11.5868   24.5526 C.2     1  lig         0.9321
     19 C8         16.7627   12.3879   25.4278 C.3     1  lig        -0.0452
     20 C9         16.0312   11.8021   24.2196 C.3     1  lig        -0.0740
     21 N1         16.1985   12.7332   23.1044 N.4     1  lig        -0.8252
     22 O1         14.3588   10.6809   25.3552 O.co2   1  lig        -0.7573
     23 O2         13.6333   12.2541   24.0319 O.co2   1  lig        -0.7573
     24 O3         14.4016   16.8013   27.8040 O.3     1  lig        -0.4913
@<TRIPOS>BOND
     1     1    12    1
     2     2    13    1
     3     3    14    1
     4     4    15    1
     5     5    19    1
     6     6    19    1
     7     7    20    1
     8     8    21    1
     9     9    21    1
    10    10    21    1
    11    11    24    1
    12    12    14   ar
    13    12    16   ar
    14    13    15   ar
    15    13    16   ar
    16    14    17   ar
    17    15    17   ar
    18    16    19    1
    19    17    24    1
    20    18    20    1
    21    18    22    1
    22    18    23    1
    23    19    20    1
    24    20    21    1
@<TRIPOS>SUBSTRUCTURE
     1 lig         1 TEMP              0 ****  ****    0 ROOT


########## Name:		ligand
########## HA_RMSDs:		10.9374
########## HA_RMSDh:		10.8809
########## HA_RMSDm:		9.1712
########## Cluster Size:	1
##########    Grid Score:          -18.252747
##########      Grid_vdw:          -15.980033
##########       Grid_es:           -2.272713
##########    Int_energy:            1.919653

@<TRIPOS>MOLECULE
ligand
 24 24 1 0 0
SMALL
No Charge or Current Charge


@<TRIPOS>ATOM
      1 H1         14.2770   10.7795   24.3243 H       1  lig         0.1340
      2 H2         10.4935   12.5804   23.5136 H       1  lig         0.1340
      3 H3         13.9902   11.3247   26.6842 H       1  lig         0.1475
      4 H4         10.2202   13.1785   25.8877 H       1  lig         0.1475
      5 H5         11.9066   11.9610   21.7272 H       1  lig         0.0877
      6 H6         13.5837   11.5752   21.9491 H       1  lig         0.0877
      7 H7         12.6954    9.1825   22.6881 H       1  lig         0.0966
      8 H8         13.9592    9.7158   20.6620 H       1  lig         0.4431
      9 H9         12.7600    8.6368   20.2740 H       1  lig         0.4431
     10 H10        12.5691   10.2506   19.9086 H       1  lig         0.4431
     11 H11        12.9075   12.2877   28.1066 H       1  lig         0.4214
     12 C1         13.3870   11.3105   24.6524 C.ar    1  lig        -0.0999
     13 C2         11.2718   12.3132   24.2245 C.ar    1  lig        -0.0999
     14 C3         13.2211   11.6127   25.9759 C.ar    1  lig        -0.1787
     15 C4         11.1123   12.6589   25.5528 C.ar    1  lig        -0.1787
     16 C5         12.4145   11.6658   23.7688 C.ar    1  lig        -0.1394
     17 C6         12.1286   12.3020   26.4313 C.ar    1  lig         0.1292
     18 C7         10.8012    9.6229   21.8727 C.2     1  lig         0.9321
     19 C8         12.5789   11.3138   22.3025 C.3     1  lig        -0.0452
     20 C9         12.2931    9.8581   21.9319 C.3     1  lig        -0.0740
     21 N1         12.9327    9.5937   20.6436 N.4     1  lig        -0.8252
     22 O1         10.2630    9.4697   22.9670 O.co2   1  lig        -0.7573
     23 O2         10.1491    9.5538   20.7916 O.co2   1  lig        -0.7573
     24 O3         12.0359   12.5327   27.6801 O.3     1  lig        -0.4913
@<TRIPOS>BOND
     1     1    12    1
     2     2    13    1
     3     3    14    1
     4     4    15    1
     5     5    19    1
     6     6    19    1
     7     7    20    1
     8     8    21    1
     9     9    21    1
    10    10    21    1
    11    11    24    1
    12    12    14   ar
    13    12    16   ar
    14    13    15   ar
    15    13    16   ar
    16    14    17   ar
    17    15    17   ar
    18    16    19    1
    19    17    24    1
    20    18    20    1
    21    18    22    1
    22    18    23    1
    23    19    20    1
    24    20    21    1
@<TRIPOS>SUBSTRUCTURE
     1 lig         1 TEMP              0 ****  ****    0 ROOT


########## Name:		ligand
########## HA_RMSDs:		11.1529
########## HA_RMSDh:		11.1259
########## HA_RMSDm:		9.1037
########## Cluster Size:	1
##########    Grid Score:          -18.235691
##########      Grid_vdw:          -16.120411
##########       Grid_es:           -2.115281
##########    Int_energy:            2.502234

@<TRIPOS>MOLECULE
ligand
 24 24 1 0 0
SMALL
No Charge or Current Charge


@<TRIPOS>ATOM
      1 H1         17.4631   16.5217   29.8341 H       1  lig         0.1340
      2 H2         14.7504   17.1491   26.5994 H       1  lig         0.1340
      3 H3         15.9057   17.6739   31.3160 H       1  lig         0.1475
      4 H4         13.1957   18.3576   28.0799 H       1  lig         0.1475
      5 H5         16.9769   16.3979   26.1754 H       1  lig         0.0877
      6 H6         18.2081   16.3484   27.3970 H       1  lig         0.0877
      7 H7         17.4582   14.1354   28.1707 H       1  lig         0.0966
      8 H8         18.8985   14.2733   26.1976 H       1  lig         0.4431
      9 H9         17.8732   12.9809   26.0201 H       1  lig         0.4431
     10 H10        17.5634   14.3995   25.2039 H       1  lig         0.4431
     11 H11        12.8286   18.8211   30.1960 H       1  lig         0.4214
     12 C1         16.5351   16.9244   29.4360 C.ar    1  lig        -0.0999
     13 C2         15.0045   17.2789   27.6488 C.ar    1  lig        -0.0999
     14 C3         15.6575   17.5661   30.2658 C.ar    1  lig        -0.1787
     15 C4         14.1291   17.9639   28.4696 C.ar    1  lig        -0.1787
     16 C5         16.2147   16.7836   28.1206 C.ar    1  lig        -0.1394
     17 C6         14.4888   18.1111   29.8041 C.ar    1  lig         0.1292
     18 C7         15.6426   14.0882   27.0990 C.2     1  lig         0.9321
     19 C8         17.1710   16.0525   27.1976 C.3     1  lig        -0.0452
     20 C9         17.0840   14.5262   27.2233 C.3     1  lig        -0.0740
     21 N1         17.9000   14.0158   26.1223 N.4     1  lig        -0.8252
     22 O1         15.0692   13.9034   28.1703 O.co2   1  lig        -0.7573
     23 O2         15.0674   13.8915   25.9903 O.co2   1  lig        -0.7573
     24 O3         13.7144   18.6795   30.6399 O.3     1  lig        -0.4913
@<TRIPOS>BOND
     1     1    12    1
     2     2    13    1
     3     3    14    1
     4     4    15    1
     5     5    19    1
     6     6    19    1
     7     7    20    1
     8     8    21    1
     9     9    21    1
    10    10    21    1
    11    11    24    1
    12    12    14   ar
    13    12    16   ar
    14    13    15   ar
    15    13    16   ar
    16    14    17   ar
    17    15    17   ar
    18    16    19    1
    19    17    24    1
    20    18    20    1
    21    18    22    1
    22    18    23    1
    23    19    20    1
    24    20    21    1
@<TRIPOS>SUBSTRUCTURE
     1 lig         1 TEMP              0 ****  ****    0 ROOT


########## Name:		ligand
########## HA_RMSDs:		14.4008
########## HA_RMSDh:		14.3382
########## HA_RMSDm:		12.8354
########## Cluster Size:	1
##########    Grid Score:          -18.207081
##########      Grid_vdw:          -16.607746
##########       Grid_es:           -1.599334
##########    Int_energy:            3.281716

@<TRIPOS>MOLECULE
ligand
 24 24 1 0 0
SMALL
No Charge or Current Charge


@<TRIPOS>ATOM
      1 H1         21.7730    4.9496   12.4942 H       1  lig         0.1340
      2 H2         24.8764    6.8136   14.7547 H       1  lig         0.1340
      3 H3         21.6819    6.9212   11.0614 H       1  lig         0.1475
      4 H4         24.7552    8.8284   13.3421 H       1  lig         0.1475
      5 H5         23.4000    4.8761   15.6533 H       1  lig         0.0877
      6 H6         22.4714    3.9403   14.5253 H       1  lig         0.0877
      7 H7         24.3634    2.6016   14.6884 H       1  lig         0.0966
      8 H8         25.5124    4.1559   16.1886 H       1  lig         0.4431
      9 H9         26.5926    3.6163   15.0507 H       1  lig         0.4431
     10 H10        25.9218    5.1333   14.8991 H       1  lig         0.4431
     11 H11        22.6525    8.6575   10.4723 H       1  lig         0.4214
     12 C1         22.4271    5.7944   12.6946 C.ar    1  lig        -0.0999
     13 C2         24.1612    6.8497   13.9363 C.ar    1  lig        -0.0999
     14 C3         22.3819    6.8991   11.8894 C.ar    1  lig        -0.1787
     15 C4         24.0962    7.9867   13.1538 C.ar    1  lig        -0.1787
     16 C5         23.3138    5.7678   13.7270 C.ar    1  lig        -0.1394
     17 C6         23.1689    7.9965   12.1185 C.ar    1  lig         0.1292
     18 C7         24.9294    3.5771   12.9065 C.2     1  lig         0.9321
     19 C8         23.3875    4.5372   14.6108 C.3     1  lig        -0.0452
     20 C9         24.5909    3.6228   14.3789 C.3     1  lig        -0.0740
     21 N1         25.7037    4.1426   15.1727 N.4     1  lig        -0.8252
     22 O1         24.3456    2.6999   12.2737 O.co2   1  lig        -0.7573
     23 O2         25.7677    4.3501   12.3600 O.co2   1  lig        -0.7573
     24 O3         23.0825    8.9813   11.3161 O.3     1  lig        -0.4913
@<TRIPOS>BOND
     1     1    12    1
     2     2    13    1
     3     3    14    1
     4     4    15    1
     5     5    19    1
     6     6    19    1
     7     7    20    1
     8     8    21    1
     9     9    21    1
    10    10    21    1
    11    11    24    1
    12    12    14   ar
    13    12    16   ar
    14    13    15   ar
    15    13    16   ar
    16    14    17   ar
    17    15    17   ar
    18    16    19    1
    19    17    24    1
    20    18    20    1
    21    18    22    1
    22    18    23    1
    23    19    20    1
    24    20    21    1
@<TRIPOS>SUBSTRUCTURE
     1 lig         1 TEMP              0 ****  ****    0 ROOT


########## Name:		ligand
########## HA_RMSDs:		11.2788
########## HA_RMSDh:		11.2049
########## HA_RMSDm:		8.4912
########## Cluster Size:	1
##########    Grid Score:          -18.186848
##########      Grid_vdw:          -15.876493
##########       Grid_es:           -2.310355
##########    Int_energy:            3.163351

@<TRIPOS>MOLECULE
ligand
 24 24 1 0 0
SMALL
No Charge or Current Charge


@<TRIPOS>ATOM
      1 H1         16.0864   13.3729   26.6088 H       1  lig         0.1340
      2 H2         13.5419   15.8316   28.9954 H       1  lig         0.1340
      3 H3         16.9045   15.3755   25.4823 H       1  lig         0.1475
      4 H4         14.3272   17.8536   27.8275 H       1  lig         0.1475
      5 H5         15.0985   12.5549   28.6946 H       1  lig         0.0877
      6 H6         13.9361   13.4749   29.5962 H       1  lig         0.0877
      7 H7         12.8111   11.6125   28.4709 H       1  lig         0.0966
      8 H8         14.4130   11.4009   26.6335 H       1  lig         0.4431
      9 H9         12.8882   11.5513   25.9970 H       1  lig         0.4431
     10 H10        13.9149   12.8629   26.0009 H       1  lig         0.4431
     11 H11        16.8252   17.3823   25.2769 H       1  lig         0.4214
     12 C1         15.6883   14.3471   26.8808 C.ar    1  lig        -0.0999
     13 C2         14.2833   15.7379   28.2053 C.ar    1  lig        -0.0999
     14 C3         16.1493   15.4723   26.2546 C.ar    1  lig        -0.1787
     15 C4         14.7125   16.8772   27.5517 C.ar    1  lig        -0.1787
     16 C5         14.7472   14.4749   27.8559 C.ar    1  lig        -0.1394
     17 C6         15.6593   16.7176   26.5467 C.ar    1  lig         0.1292
     18 C7         11.9002   13.3725   27.7499 C.2     1  lig         0.9321
     19 C8         14.2473   13.2349   28.5724 C.3     1  lig        -0.0452
     20 C9         13.1124   12.4790   27.8804 C.3     1  lig        -0.0740
     21 N1         13.6024   12.0398   26.5744 N.4     1  lig        -0.8252
     22 O1         11.1290   13.3323   28.7060 O.co2   1  lig        -0.7573
     23 O2         11.6665   14.0852   26.7320 O.co2   1  lig        -0.7573
     24 O3         16.1492   17.7200   25.9331 O.3     1  lig        -0.4913
@<TRIPOS>BOND
     1     1    12    1
     2     2    13    1
     3     3    14    1
     4     4    15    1
     5     5    19    1
     6     6    19    1
     7     7    20    1
     8     8    21    1
     9     9    21    1
    10    10    21    1
    11    11    24    1
    12    12    14   ar
    13    12    16   ar
    14    13    15   ar
    15    13    16   ar
    16    14    17   ar
    17    15    17   ar
    18    16    19    1
    19    17    24    1
    20    18    20    1
    21    18    22    1
    22    18    23    1
    23    19    20    1
    24    20    21    1
@<TRIPOS>SUBSTRUCTURE
     1 lig         1 TEMP              0 ****  ****    0 ROOT


########## Name:		ligand
########## HA_RMSDs:		13.0018
########## HA_RMSDh:		12.9251
########## HA_RMSDm:		9.0199
########## Cluster Size:	1
##########    Grid Score:          -18.178366
##########      Grid_vdw:          -19.407913
##########       Grid_es:            1.229548
##########    Int_energy:            3.379867

@<TRIPOS>MOLECULE
ligand
 24 24 1 0 0
SMALL
No Charge or Current Charge


@<TRIPOS>ATOM
      1 H1         13.4031   15.9948   29.1863 H       1  lig         0.1340
      2 H2         16.5912   18.8226   29.4212 H       1  lig         0.1340
      3 H3         14.1919   15.3438   26.9720 H       1  lig         0.1475
      4 H4         17.3636   18.2051   27.1648 H       1  lig         0.1475
      5 H5         14.6972   18.9218   30.9596 H       1  lig         0.0877
      6 H6         13.3648   17.8130   30.8824 H       1  lig         0.0877
      7 H7         14.5007   17.2546   32.8988 H       1  lig         0.0966
      8 H8         16.5429   18.4932   32.3679 H       1  lig         0.4431
      9 H9         16.9604   16.9718   32.8817 H       1  lig         0.4431
     10 H10        16.9858   17.3306   31.2553 H       1  lig         0.4431
     11 H11        16.9847   16.8273   25.5152 H       1  lig         0.4214
     12 C1         14.2676   16.4911   28.7526 C.ar    1  lig        -0.0999
     13 C2         16.0568   18.0559   28.8651 C.ar    1  lig        -0.0999
     14 C3         14.7153   16.1242   27.5135 C.ar    1  lig        -0.1787
     15 C4         16.4938   17.7212   27.5976 C.ar    1  lig        -0.1787
     16 C5         14.9337   17.4645   29.4320 C.ar    1  lig        -0.1394
     17 C6         15.7847   16.7383   26.9172 C.ar    1  lig         0.1292
     18 C7         14.9530   15.5835   31.6947 C.2     1  lig         0.9321
     19 C8         14.4585   17.8614   30.8168 C.3     1  lig        -0.0452
     20 C9         15.0543   17.0648   31.9780 C.3     1  lig        -0.0740
     21 N1         16.4441   17.4893   32.1415 N.4     1  lig        -0.8252
     22 O1         13.8944   15.0662   32.0446 O.co2   1  lig        -0.7573
     23 O2         15.8854   14.9091   31.1706 O.co2   1  lig        -0.7573
     24 O3         16.1532   16.3312   25.7684 O.3     1  lig        -0.4913
@<TRIPOS>BOND
     1     1    12    1
     2     2    13    1
     3     3    14    1
     4     4    15    1
     5     5    19    1
     6     6    19    1
     7     7    20    1
     8     8    21    1
     9     9    21    1
    10    10    21    1
    11    11    24    1
    12    12    14   ar
    13    12    16   ar
    14    13    15   ar
    15    13    16   ar
    16    14    17   ar
    17    15    17   ar
    18    16    19    1
    19    17    24    1
    20    18    20    1
    21    18    22    1
    22    18    23    1
    23    19    20    1
    24    20    21    1
@<TRIPOS>SUBSTRUCTURE
     1 lig         1 TEMP              0 ****  ****    0 ROOT


########## Name:		ligand
########## HA_RMSDs:		13.3435
########## HA_RMSDh:		13.2812
########## HA_RMSDm:		11.0101
########## Cluster Size:	1
##########    Grid Score:          -18.165325
##########      Grid_vdw:          -15.227591
##########       Grid_es:           -2.937735
##########    Int_energy:            5.255146

@<TRIPOS>MOLECULE
ligand
 24 24 1 0 0
SMALL
No Charge or Current Charge


@<TRIPOS>ATOM
      1 H1          8.9347    9.4713   21.1594 H       1  lig         0.1340
      2 H2          9.7867   10.7075   25.1546 H       1  lig         0.1340
      3 H3         11.1665   10.1988   20.4969 H       1  lig         0.1475
      4 H4         12.0237   11.4902   24.4820 H       1  lig         0.1475
      5 H5          7.7435    9.7575   24.6953 H       1  lig         0.0877
      6 H6          7.0552   10.2347   23.1757 H       1  lig         0.0877
      7 H7          8.0426    7.7990   22.4209 H       1  lig         0.0966
      8 H8          5.7423    8.6185   22.2656 H       1  lig         0.4431
      9 H9          5.7201    7.0824   22.8926 H       1  lig         0.4431
     10 H10         5.5267    8.3909   23.9050 H       1  lig         0.4431
     11 H11        13.0561   10.7460   21.1554 H       1  lig         0.4214
     12 C1          9.5988    9.9175   21.8954 C.ar    1  lig        -0.0999
     13 C2         10.0981   10.6069   24.1175 C.ar    1  lig        -0.0999
     14 C3         10.8528   10.3213   21.5278 C.ar    1  lig        -0.1787
     15 C4         11.3522   11.0550   23.7488 C.ar    1  lig        -0.1787
     16 C5          9.2133   10.0648   23.1925 C.ar    1  lig        -0.1394
     17 C6         11.7142   10.9110   22.4146 C.ar    1  lig         0.1292
     18 C7          7.9320    7.2556   24.4555 C.2     1  lig         0.9321
     19 C8          7.8331    9.5981   23.6144 C.3     1  lig        -0.0452
     20 C9          7.5017    8.1376   23.3059 C.3     1  lig        -0.0740
     21 N1          6.0615    8.0493   23.0676 N.4     1  lig        -0.8252
     22 O1          8.6843    7.7970   25.2627 O.co2   1  lig        -0.7573
     23 O2          7.5820    6.0465   24.5749 O.co2   1  lig        -0.7573
     24 O3         12.8714   11.2460   22.0025 O.3     1  lig        -0.4913
@<TRIPOS>BOND
     1     1    12    1
     2     2    13    1
     3     3    14    1
     4     4    15    1
     5     5    19    1
     6     6    19    1
     7     7    20    1
     8     8    21    1
     9     9    21    1
    10    10    21    1
    11    11    24    1
    12    12    14   ar
    13    12    16   ar
    14    13    15   ar
    15    13    16   ar
    16    14    17   ar
    17    15    17   ar
    18    16    19    1
    19    17    24    1
    20    18    20    1
    21    18    22    1
    22    18    23    1
    23    19    20    1
    24    20    21    1
@<TRIPOS>SUBSTRUCTURE
     1 lig         1 TEMP              0 ****  ****    0 ROOT


########## Name:		ligand
########## HA_RMSDs:		13.4489
########## HA_RMSDh:		13.4312
########## HA_RMSDm:		11.8138
########## Cluster Size:	1
##########    Grid Score:          -18.155750
##########      Grid_vdw:          -16.049501
##########       Grid_es:           -2.106248
##########    Int_energy:            2.802951

@<TRIPOS>MOLECULE
ligand
 24 24 1 0 0
SMALL
No Charge or Current Charge


@<TRIPOS>ATOM
      1 H1         10.1231    9.0954   21.8445 H       1  lig         0.1340
      2 H2          6.9048   10.1374   24.4469 H       1  lig         0.1340
      3 H3         11.2517   11.1649   22.4707 H       1  lig         0.1475
      4 H4          8.0160   12.2530   25.0457 H       1  lig         0.1475
      5 H5          6.6565    8.3639   22.8296 H       1  lig         0.0877
      6 H6          7.8714    7.9798   21.6519 H       1  lig         0.0877
      7 H7          7.2519    6.4567   23.9072 H       1  lig         0.0966
      8 H8          8.4563    8.0779   25.2885 H       1  lig         0.4431
      9 H9          9.3213    6.6626   25.2508 H       1  lig         0.4431
     10 H10         9.8005    7.9491   24.3075 H       1  lig         0.4431
     11 H11        11.1220   12.9826   23.4007 H       1  lig         0.4214
     12 C1          9.6479    9.7810   22.5416 C.ar    1  lig        -0.0999
     13 C2          7.8683   10.3784   24.0040 C.ar    1  lig        -0.0999
     14 C3         10.2810   10.9396   22.8987 C.ar    1  lig        -0.1787
     15 C4          8.4804   11.5705   24.3410 C.ar    1  lig        -0.1787
     16 C5          8.4340    9.4982   23.0887 C.ar    1  lig        -0.1394
     17 C6          9.7100   11.8446   23.7537 C.ar    1  lig         0.1292
     18 C7          8.8859    5.9960   22.6563 C.2     1  lig         0.9321
     19 C8          7.7352    8.2043   22.7167 C.3     1  lig        -0.0452
     20 C9          8.1360    6.9740   23.5314 C.3     1  lig        -0.0740
     21 N1          8.9543    7.4314   24.6538 N.4     1  lig        -0.8252
     22 O1         10.0568    6.2986   22.4369 O.co2   1  lig        -0.7573
     23 O2          8.3574    4.9624   22.1553 O.co2   1  lig        -0.7573
     24 O3         10.3673   12.8935   24.0519 O.3     1  lig        -0.4913
@<TRIPOS>BOND
     1     1    12    1
     2     2    13    1
     3     3    14    1
     4     4    15    1
     5     5    19    1
     6     6    19    1
     7     7    20    1
     8     8    21    1
     9     9    21    1
    10    10    21    1
    11    11    24    1
    12    12    14   ar
    13    12    16   ar
    14    13    15   ar
    15    13    16   ar
    16    14    17   ar
    17    15    17   ar
    18    16    19    1
    19    17    24    1
    20    18    20    1
    21    18    22    1
    22    18    23    1
    23    19    20    1
    24    20    21    1
@<TRIPOS>SUBSTRUCTURE
     1 lig         1 TEMP              0 ****  ****    0 ROOT


########## Name:		ligand
########## HA_RMSDs:		11.5711
########## HA_RMSDh:		11.5186
########## HA_RMSDm:		9.7022
########## Cluster Size:	1
##########    Grid Score:          -18.152042
##########      Grid_vdw:          -17.300461
##########       Grid_es:           -0.851581
##########    Int_energy:            2.288542

@<TRIPOS>MOLECULE
ligand
 24 24 1 0 0
SMALL
No Charge or Current Charge


@<TRIPOS>ATOM
      1 H1          9.9377    9.3860   22.0041 H       1  lig         0.1340
      2 H2         12.3886   12.3593   23.8394 H       1  lig         0.1340
      3 H3          8.0332   10.2209   23.2787 H       1  lig         0.1475
      4 H4         10.4805   13.1754   25.1670 H       1  lig         0.1475
      5 H5         12.0793    9.7051   21.2239 H       1  lig         0.0877
      6 H6         12.9976   11.1348   21.5749 H       1  lig         0.0877
      7 H7         14.0342   10.0760   23.5422 H       1  lig         0.0966
      8 H8         14.9436    9.5993   21.3213 H       1  lig         0.4431
      9 H9         15.1296    8.2535   22.2738 H       1  lig         0.4431
     10 H10        13.9030    8.3058   21.1481 H       1  lig         0.4431
     11 H11         7.3369   11.4854   24.6966 H       1  lig         0.4214
     12 C1         10.0716   10.2122   22.6978 C.ar    1  lig        -0.0999
     13 C2         11.4177   11.8825   23.7278 C.ar    1  lig        -0.0999
     14 C3          9.0042   10.6859   23.4098 C.ar    1  lig        -0.1787
     15 C4         10.3552   12.3430   24.4817 C.ar    1  lig        -0.1787
     16 C5         11.2861   10.8053   22.8590 C.ar    1  lig        -0.1394
     17 C6          9.1305   11.7078   24.3131 C.ar    1  lig         0.1292
     18 C7         12.7755    8.3857   23.6178 C.2     1  lig         0.9321
     19 C8         12.4705   10.3020   22.0560 C.3     1  lig        -0.0452
     20 C9         13.4872    9.4596   22.8272 C.3     1  lig        -0.0740
     21 N1         14.4183    8.8870   21.8557 N.4     1  lig        -0.8252
     22 O1         12.5251    8.6881   24.7825 O.co2   1  lig        -0.7573
     23 O2         12.4830    7.2504   23.1442 O.co2   1  lig        -0.7573
     24 O3          8.0881   12.1053   24.9268 O.3     1  lig        -0.4913
@<TRIPOS>BOND
     1     1    12    1
     2     2    13    1
     3     3    14    1
     4     4    15    1
     5     5    19    1
     6     6    19    1
     7     7    20    1
     8     8    21    1
     9     9    21    1
    10    10    21    1
    11    11    24    1
    12    12    14   ar
    13    12    16   ar
    14    13    15   ar
    15    13    16   ar
    16    14    17   ar
    17    15    17   ar
    18    16    19    1
    19    17    24    1
    20    18    20    1
    21    18    22    1
    22    18    23    1
    23    19    20    1
    24    20    21    1
@<TRIPOS>SUBSTRUCTURE
     1 lig         1 TEMP              0 ****  ****    0 ROOT


########## Name:		ligand
########## HA_RMSDs:		10.4203
########## HA_RMSDh:		10.3378
########## HA_RMSDm:		7.8946
########## Cluster Size:	1
##########    Grid Score:          -18.142090
##########      Grid_vdw:          -13.535171
##########       Grid_es:           -4.606918
##########    Int_energy:            2.876447

@<TRIPOS>MOLECULE
ligand
 24 24 1 0 0
SMALL
No Charge or Current Charge


@<TRIPOS>ATOM
      1 H1         20.6361   15.0994   25.3193 H       1  lig         0.1340
      2 H2         19.0088   11.2421   26.1494 H       1  lig         0.1340
      3 H3         22.5063   14.0254   24.1802 H       1  lig         0.1475
      4 H4         20.9202   10.1496   25.0440 H       1  lig         0.1475
      5 H5         18.5885   13.6305   27.5808 H       1  lig         0.0877
      6 H6         18.6483   14.9921   26.5070 H       1  lig         0.0877
      7 H7         16.7572   12.6699   26.5076 H       1  lig         0.0966
      8 H8         17.9331   12.4222   24.3763 H       1  lig         0.4431
      9 H9         16.4081   13.0047   24.0794 H       1  lig         0.4431
     10 H10        17.7110   14.0418   24.0397 H       1  lig         0.4431
     11 H11        23.6746   12.0321   24.2397 H       1  lig         0.4214
     12 C1         20.6894   14.0147   25.2717 C.ar    1  lig        -0.0999
     13 C2         19.7967   11.8543   25.7169 C.ar    1  lig        -0.0999
     14 C3         21.7342   13.4099   24.6288 C.ar    1  lig        -0.1787
     15 C4         20.8679   11.2320   25.1049 C.ar    1  lig        -0.1787
     16 C5         19.7181   13.2380   25.8249 C.ar    1  lig        -0.1394
     17 C6         21.8560   12.0471   24.5653 C.ar    1  lig         0.1292
     18 C7         16.1990   14.6806   26.2038 C.2     1  lig         0.9321
     19 C8         18.5434   13.9004   26.5193 C.3     1  lig        -0.0452
     20 C9         17.1600   13.5356   25.9798 C.3     1  lig        -0.0740
     21 N1         17.3053   13.2231   24.5586 N.4     1  lig        -0.8252
     22 O1         16.3309   15.6203   25.4227 O.co2   1  lig        -0.7573
     23 O2         15.3442   14.7006   27.1353 O.co2   1  lig        -0.7573
     24 O3         22.8481   11.5568   23.9354 O.3     1  lig        -0.4913
@<TRIPOS>BOND
     1     1    12    1
     2     2    13    1
     3     3    14    1
     4     4    15    1
     5     5    19    1
     6     6    19    1
     7     7    20    1
     8     8    21    1
     9     9    21    1
    10    10    21    1
    11    11    24    1
    12    12    14   ar
    13    12    16   ar
    14    13    15   ar
    15    13    16   ar
    16    14    17   ar
    17    15    17   ar
    18    16    19    1
    19    17    24    1
    20    18    20    1
    21    18    22    1
    22    18    23    1
    23    19    20    1
    24    20    21    1
@<TRIPOS>SUBSTRUCTURE
     1 lig         1 TEMP              0 ****  ****    0 ROOT


########## Name:		ligand
########## HA_RMSDs:		12.6494
########## HA_RMSDh:		12.6212
########## HA_RMSDm:		10.5873
########## Cluster Size:	1
##########    Grid Score:          -18.141077
##########      Grid_vdw:          -14.852673
##########       Grid_es:           -3.288405
##########    Int_energy:            2.744480

@<TRIPOS>MOLECULE
ligand
 24 24 1 0 0
SMALL
No Charge or Current Charge


@<TRIPOS>ATOM
      1 H1         16.3493   17.8942   29.9550 H       1  lig         0.1340
      2 H2         15.4062   13.7322   30.0225 H       1  lig         0.1340
      3 H3         14.6805   18.2635   31.6950 H       1  lig         0.1475
      4 H4         13.6843   14.1056   31.7442 H       1  lig         0.1475
      5 H5         17.5600   16.4954   28.6473 H       1  lig         0.0877
      6 H6         17.7748   14.8473   29.1454 H       1  lig         0.0877
      7 H7         16.2390   14.0165   27.4781 H       1  lig         0.0966
      8 H8         18.4091   14.7834   26.6479 H       1  lig         0.4431
      9 H9         17.2643   15.0548   25.4780 H       1  lig         0.4431
     10 H10        17.8025   16.3211   26.4168 H       1  lig         0.4431
     11 H11        13.3920   15.8722   33.4840 H       1  lig         0.4214
     12 C1         15.7683   17.0570   30.3336 C.ar    1  lig        -0.0999
     13 C2         15.2315   14.7395   30.3933 C.ar    1  lig        -0.0999
     14 C3         14.8357   17.2604   31.3131 C.ar    1  lig        -0.1787
     15 C4         14.2589   14.9396   31.3542 C.ar    1  lig        -0.1787
     16 C5         15.9658   15.7947   29.8643 C.ar    1  lig        -0.1394
     17 C6         14.0633   16.2406   31.8025 C.ar    1  lig         0.1292
     18 C7         15.2189   15.8206   27.0891 C.2     1  lig         0.9321
     19 C8         17.0146   15.5559   28.7948 C.3     1  lig        -0.0452
     20 C9         16.4875   15.0781   27.4413 C.3     1  lig        -0.0740
     21 N1         17.5384   15.3047   26.4499 N.4     1  lig        -0.8252
     22 O1         15.3919   16.8552   26.4485 O.co2   1  lig        -0.7573
     23 O2         14.0670   15.4394   27.4448 O.co2   1  lig        -0.7573
     24 O3         13.2269   16.5043   32.7257 O.3     1  lig        -0.4913
@<TRIPOS>BOND
     1     1    12    1
     2     2    13    1
     3     3    14    1
     4     4    15    1
     5     5    19    1
     6     6    19    1
     7     7    20    1
     8     8    21    1
     9     9    21    1
    10    10    21    1
    11    11    24    1
    12    12    14   ar
    13    12    16   ar
    14    13    15   ar
    15    13    16   ar
    16    14    17   ar
    17    15    17   ar
    18    16    19    1
    19    17    24    1
    20    18    20    1
    21    18    22    1
    22    18    23    1
    23    19    20    1
    24    20    21    1
@<TRIPOS>SUBSTRUCTURE
     1 lig         1 TEMP              0 ****  ****    0 ROOT


########## Name:		ligand
########## HA_RMSDs:		11.2456
########## HA_RMSDh:		11.1490
########## HA_RMSDm:		8.4573
########## Cluster Size:	1
##########    Grid Score:          -18.120949
##########      Grid_vdw:          -15.887245
##########       Grid_es:           -2.233705
##########    Int_energy:            3.184685

@<TRIPOS>MOLECULE
ligand
 24 24 1 0 0
SMALL
No Charge or Current Charge


@<TRIPOS>ATOM
      1 H1         13.8456   13.9356   27.9564 H       1  lig         0.1340
      2 H2         17.7543   15.3978   27.0622 H       1  lig         0.1340
      3 H3         13.8506   12.7305   25.8359 H       1  lig         0.1475
      4 H4         17.7458   14.2235   24.8965 H       1  lig         0.1475
      5 H5         15.1241   14.9669   29.6380 H       1  lig         0.0877
      6 H6         16.7844   15.4278   29.4339 H       1  lig         0.0877
      7 H7         15.3714   17.4011   29.9036 H       1  lig         0.0966
      8 H8         13.3322   16.5249   28.8736 H       1  lig         0.4431
      9 H9         13.6825   17.9976   28.1943 H       1  lig         0.4431
     10 H10        14.0370   16.5988   27.3624 H       1  lig         0.4431
     11 H11        16.5456   12.9062   23.6365 H       1  lig         0.4214
     12 C1         14.7032   14.0122   27.2929 C.ar    1  lig        -0.0999
     13 C2         16.8851   14.8097   26.7771 C.ar    1  lig        -0.0999
     14 C3         14.7110   13.3331   26.1056 C.ar    1  lig        -0.1787
     15 C4         16.8873   14.1601   25.5575 C.ar    1  lig        -0.1787
     16 C5         15.7894   14.7597   27.6311 C.ar    1  lig        -0.1394
     17 C6         15.7584   13.4196   25.2272 C.ar    1  lig         0.1292
     18 C7         16.3837   17.7576   28.0884 C.2     1  lig         0.9321
     19 C8         15.7994   15.4972   28.9565 C.3     1  lig        -0.0452
     20 C9         15.3845   16.9679   28.9024 C.3     1  lig        -0.0740
     21 N1         14.0444   17.0305   28.3202 N.4     1  lig        -0.8252
     22 O1         17.3339   18.1985   28.7314 O.co2   1  lig        -0.7573
     23 O2         16.2513   17.9835   26.8514 O.co2   1  lig        -0.7573
     24 O3         15.7007   12.7456   24.1485 O.3     1  lig        -0.4913
@<TRIPOS>BOND
     1     1    12    1
     2     2    13    1
     3     3    14    1
     4     4    15    1
     5     5    19    1
     6     6    19    1
     7     7    20    1
     8     8    21    1
     9     9    21    1
    10    10    21    1
    11    11    24    1
    12    12    14   ar
    13    12    16   ar
    14    13    15   ar
    15    13    16   ar
    16    14    17   ar
    17    15    17   ar
    18    16    19    1
    19    17    24    1
    20    18    20    1
    21    18    22    1
    22    18    23    1
    23    19    20    1
    24    20    21    1
@<TRIPOS>SUBSTRUCTURE
     1 lig         1 TEMP              0 ****  ****    0 ROOT


########## Name:		ligand
########## HA_RMSDs:		11.0862
########## HA_RMSDh:		10.9668
########## HA_RMSDm:		7.6313
########## Cluster Size:	1
##########    Grid Score:          -18.109089
##########      Grid_vdw:          -17.902534
##########       Grid_es:           -0.206555
##########    Int_energy:            2.723906

@<TRIPOS>MOLECULE
ligand
 24 24 1 0 0
SMALL
No Charge or Current Charge


@<TRIPOS>ATOM
      1 H1         16.4891   15.8794   24.7951 H       1  lig         0.1340
      2 H2         15.4839   13.4365   28.1474 H       1  lig         0.1340
      3 H3         15.9273   14.0213   23.3185 H       1  lig         0.1475
      4 H4         14.9625   11.5397   26.6643 H       1  lig         0.1475
      5 H5         16.1238   15.6178   28.5084 H       1  lig         0.0877
      6 H6         17.4557   16.1072   27.5098 H       1  lig         0.0877
      7 H7         14.6916   17.0571   26.7184 H       1  lig         0.0966
      8 H8         16.6756   17.5238   25.3646 H       1  lig         0.4431
      9 H9         16.1357   18.9458   26.0274 H       1  lig         0.4431
     10 H10        17.4547   18.1739   26.6898 H       1  lig         0.4431
     11 H11        15.1825   10.8781   24.5291 H       1  lig         0.4214
     12 C1         16.1622   14.9327   25.2176 C.ar    1  lig        -0.0999
     13 C2         15.5893   13.5552   27.0716 C.ar    1  lig        -0.0999
     14 C3         15.8412   13.8908   24.3917 C.ar    1  lig        -0.1787
     15 C4         15.3008   12.4835   26.2485 C.ar    1  lig        -0.1787
     16 C5         16.0435   14.7668   26.5634 C.ar    1  lig        -0.1394
     17 C6         15.4488   12.6725   24.8795 C.ar    1  lig         0.1292
     18 C7         15.4056   18.0001   28.4642 C.2     1  lig         0.9321
     19 C8         16.3745   15.9244   27.4862 C.3     1  lig        -0.0452
     20 C9         15.6618   17.2425   27.1817 C.3     1  lig        -0.0740
     21 N1         16.5089   18.0043   26.2647 N.4     1  lig        -0.8252
     22 O1         16.4180   18.2971   29.0947 O.co2   1  lig        -0.7573
     23 O2         14.2480   18.2850   28.8857 O.co2   1  lig        -0.7573
     24 O3         15.1508   11.7552   24.0482 O.3     1  lig        -0.4913
@<TRIPOS>BOND
     1     1    12    1
     2     2    13    1
     3     3    14    1
     4     4    15    1
     5     5    19    1
     6     6    19    1
     7     7    20    1
     8     8    21    1
     9     9    21    1
    10    10    21    1
    11    11    24    1
    12    12    14   ar
    13    12    16   ar
    14    13    15   ar
    15    13    16   ar
    16    14    17   ar
    17    15    17   ar
    18    16    19    1
    19    17    24    1
    20    18    20    1
    21    18    22    1
    22    18    23    1
    23    19    20    1
    24    20    21    1
@<TRIPOS>SUBSTRUCTURE
     1 lig         1 TEMP              0 ****  ****    0 ROOT


########## Name:		ligand
########## HA_RMSDs:		13.4181
########## HA_RMSDh:		13.3768
########## HA_RMSDm:		11.3093
########## Cluster Size:	1
##########    Grid Score:          -18.080732
##########      Grid_vdw:          -18.333675
##########       Grid_es:            0.252944
##########    Int_energy:            3.401356

@<TRIPOS>MOLECULE
ligand
 24 24 1 0 0
SMALL
No Charge or Current Charge


@<TRIPOS>ATOM
      1 H1         10.7786    6.8460   22.0286 H       1  lig         0.1340
      2 H2          9.0213   10.1907   20.0435 H       1  lig         0.1340
      3 H3          8.7426    5.5713   21.6059 H       1  lig         0.1475
      4 H4          6.9432    8.9252   19.6572 H       1  lig         0.1475
      5 H5         12.1373    8.7160   21.1900 H       1  lig         0.0877
      6 H6         11.4232   10.1649   20.5564 H       1  lig         0.0877
      7 H7         11.7848   11.0750   22.6082 H       1  lig         0.0966
      8 H8         13.2865    9.2054   23.0942 H       1  lig         0.4431
      9 H9         12.4546    9.5945   24.4761 H       1  lig         0.4431
     10 H10        11.9958    8.2662   23.5819 H       1  lig         0.4431
     11 H11         6.9969    5.6032   19.9570 H       1  lig         0.4214
     12 C1          9.9439    7.3151   21.5139 C.ar    1  lig        -0.0999
     13 C2          8.9473    9.1648   20.3967 C.ar    1  lig        -0.0999
     14 C3          8.8031    6.6010   21.2707 C.ar    1  lig        -0.1787
     15 C4          7.7752    8.4656   20.1811 C.ar    1  lig        -0.1787
     16 C5         10.0184    8.6041   21.0829 C.ar    1  lig        -0.1394
     17 C6          7.7175    7.1578   20.6482 C.ar    1  lig         0.1292
     18 C7         10.0458   10.1430   23.3526 C.2     1  lig         0.9321
     19 C8         11.2887    9.3964   21.3272 C.3     1  lig        -0.0452
     20 C9         11.4072   10.0557   22.7017 C.3     1  lig        -0.0740
     21 N1         12.3366    9.2566   23.4994 N.4     1  lig        -0.8252
     22 O1          9.4243   11.1737   23.1039 O.co2   1  lig        -0.7573
     23 O2          9.5821    9.2514   24.1200 O.co2   1  lig        -0.7573
     24 O3          6.6964    6.4254   20.4421 O.3     1  lig        -0.4913
@<TRIPOS>BOND
     1     1    12    1
     2     2    13    1
     3     3    14    1
     4     4    15    1
     5     5    19    1
     6     6    19    1
     7     7    20    1
     8     8    21    1
     9     9    21    1
    10    10    21    1
    11    11    24    1
    12    12    14   ar
    13    12    16   ar
    14    13    15   ar
    15    13    16   ar
    16    14    17   ar
    17    15    17   ar
    18    16    19    1
    19    17    24    1
    20    18    20    1
    21    18    22    1
    22    18    23    1
    23    19    20    1
    24    20    21    1
@<TRIPOS>SUBSTRUCTURE
     1 lig         1 TEMP              0 ****  ****    0 ROOT


########## Name:		ligand
########## HA_RMSDs:		13.6859
########## HA_RMSDh:		13.6376
########## HA_RMSDm:		11.7113
########## Cluster Size:	1
##########    Grid Score:          -18.079731
##########      Grid_vdw:          -17.715052
##########       Grid_es:           -0.364679
##########    Int_energy:            3.330587

@<TRIPOS>MOLECULE
ligand
 24 24 1 0 0
SMALL
No Charge or Current Charge


@<TRIPOS>ATOM
      1 H1          8.1358    9.4858   24.2964 H       1  lig         0.1340
      2 H2          9.9212    6.8962   21.4116 H       1  lig         0.1340
      3 H3          5.9375    8.7107   23.5783 H       1  lig         0.1475
      4 H4          7.7026    6.1460   20.6473 H       1  lig         0.1475
      5 H5         10.4698    8.9552   24.4072 H       1  lig         0.0877
      6 H6         11.2635    7.9045   23.2774 H       1  lig         0.0877
      7 H7         12.1303   10.1279   22.9125 H       1  lig         0.0966
      8 H8         10.2568   11.3093   23.9522 H       1  lig         0.4431
      9 H9         10.5375   11.9675   22.4553 H       1  lig         0.4431
     10 H10         9.2657   10.9133   22.6689 H       1  lig         0.4431
     11 H11         4.8456    7.6677   22.2024 H       1  lig         0.4214
     12 C1          8.0547    8.7590   23.4921 C.ar    1  lig        -0.0999
     13 C2          9.0289    7.3024   21.8821 C.ar    1  lig        -0.0999
     14 C3          6.8235    8.3185   23.0911 C.ar    1  lig        -0.1787
     15 C4          7.7890    6.8804   21.4418 C.ar    1  lig        -0.1787
     16 C5          9.1640    8.2567   22.8838 C.ar    1  lig        -0.1394
     17 C6          6.6718    7.4230   22.0659 C.ar    1  lig         0.1292
     18 C7         11.1217    9.6807   21.1154 C.2     1  lig         0.9321
     19 C8         10.5346    8.7217   23.3380 C.3     1  lig        -0.0452
     20 C9         11.1010    9.9380   22.6048 C.3     1  lig        -0.0740
     21 N1         10.2649   11.0895   22.9420 N.4     1  lig        -0.8252
     22 O1         12.1883    9.2471   20.6853 O.co2   1  lig        -0.7573
     23 O2         10.1405    9.9177   20.3539 O.co2   1  lig        -0.7573
     24 O3          5.4943    7.0474   21.7597 O.3     1  lig        -0.4913
@<TRIPOS>BOND
     1     1    12    1
     2     2    13    1
     3     3    14    1
     4     4    15    1
     5     5    19    1
     6     6    19    1
     7     7    20    1
     8     8    21    1
     9     9    21    1
    10    10    21    1
    11    11    24    1
    12    12    14   ar
    13    12    16   ar
    14    13    15   ar
    15    13    16   ar
    16    14    17   ar
    17    15    17   ar
    18    16    19    1
    19    17    24    1
    20    18    20    1
    21    18    22    1
    22    18    23    1
    23    19    20    1
    24    20    21    1
@<TRIPOS>SUBSTRUCTURE
     1 lig         1 TEMP              0 ****  ****    0 ROOT


########## Name:		ligand
########## HA_RMSDs:		12.9212
########## HA_RMSDh:		12.8598
########## HA_RMSDm:		11.2196
########## Cluster Size:	1
##########    Grid Score:          -18.070856
##########      Grid_vdw:          -17.234867
##########       Grid_es:           -0.835988
##########    Int_energy:            1.218222

@<TRIPOS>MOLECULE
ligand
 24 24 1 0 0
SMALL
No Charge or Current Charge


@<TRIPOS>ATOM
      1 H1          7.6497   10.0430   24.3522 H       1  lig         0.1340
      2 H2         10.9021   10.7112   21.6706 H       1  lig         0.1340
      3 H3          6.8667    8.2483   22.8980 H       1  lig         0.1475
      4 H4         10.0890    8.9331   20.1719 H       1  lig         0.1475
      5 H5         10.4065   12.2994   23.3893 H       1  lig         0.0877
      6 H6          8.9790   12.2169   24.3721 H       1  lig         0.0877
      7 H7         10.4270   10.1263   25.4591 H       1  lig         0.0966
      8 H8          9.3590   12.0058   26.6053 H       1  lig         0.4431
      9 H9         10.9110   11.8488   27.1706 H       1  lig         0.4431
     10 H10        10.5510   13.0418   26.0652 H       1  lig         0.4431
     11 H11         7.1721    7.1221   21.2478 H       1  lig         0.4214
     12 C1          8.1894    9.8144   23.4368 C.ar    1  lig        -0.0999
     13 C2          9.9990   10.1645   21.9316 C.ar    1  lig        -0.0999
     14 C3          7.7557    8.8049   22.6222 C.ar    1  lig        -0.1787
     15 C4          9.5472    9.1735   21.0811 C.ar    1  lig        -0.1787
     16 C5          9.3110   10.5038   23.0909 C.ar    1  lig        -0.1394
     17 C6          8.3890    8.4979   21.4472 C.ar    1  lig         0.1292
     18 C7         12.1262   11.2055   24.8307 C.2     1  lig         0.9321
     19 C8          9.8129   11.6093   24.0002 C.3     1  lig        -0.0452
     20 C9         10.6591   11.1581   25.1912 C.3     1  lig        -0.0740
     21 N1         10.3507   12.0411   26.3154 N.4     1  lig        -0.8252
     22 O1         12.5759   10.1562   24.3753 O.co2   1  lig        -0.7573
     23 O2         12.8545   12.2239   25.0074 O.co2   1  lig        -0.7573
     24 O3          7.9360    7.5340   20.7493 O.3     1  lig        -0.4913
@<TRIPOS>BOND
     1     1    12    1
     2     2    13    1
     3     3    14    1
     4     4    15    1
     5     5    19    1
     6     6    19    1
     7     7    20    1
     8     8    21    1
     9     9    21    1
    10    10    21    1
    11    11    24    1
    12    12    14   ar
    13    12    16   ar
    14    13    15   ar
    15    13    16   ar
    16    14    17   ar
    17    15    17   ar
    18    16    19    1
    19    17    24    1
    20    18    20    1
    21    18    22    1
    22    18    23    1
    23    19    20    1
    24    20    21    1
@<TRIPOS>SUBSTRUCTURE
     1 lig         1 TEMP              0 ****  ****    0 ROOT


########## Name:		ligand
########## HA_RMSDs:		13.6893
########## HA_RMSDh:		13.6378
########## HA_RMSDm:		11.8186
########## Cluster Size:	1
##########    Grid Score:          -18.061838
##########      Grid_vdw:          -16.899155
##########       Grid_es:           -1.162683
##########    Int_energy:            1.368516

@<TRIPOS>MOLECULE
ligand
 24 24 1 0 0
SMALL
No Charge or Current Charge


@<TRIPOS>ATOM
      1 H1          7.1372   10.0137   24.6206 H       1  lig         0.1340
      2 H2         10.0248    9.7036   21.4931 H       1  lig         0.1340
      3 H3          6.0562    7.9982   23.7732 H       1  lig         0.1475
      4 H4          8.9088    7.6960   20.6022 H       1  lig         0.1475
      5 H5          9.8636   11.7036   22.7970 H       1  lig         0.0877
      6 H6          8.5841   11.9934   23.9326 H       1  lig         0.0877
      7 H7         10.7429   10.0231   24.7261 H       1  lig         0.0966
      8 H8          8.7841   10.4531   26.1278 H       1  lig         0.4431
      9 H9         10.1282   11.0578   26.8898 H       1  lig         0.4431
     10 H10         9.0929   12.0930   26.0955 H       1  lig         0.4431
     11 H11         7.0389    5.9450   22.3861 H       1  lig         0.4214
     12 C1          7.5315    9.5196   23.7362 C.ar    1  lig        -0.0999
     13 C2          9.1350    9.3229   21.9890 C.ar    1  lig        -0.0999
     14 C3          6.9306    8.3861   23.2621 C.ar    1  lig        -0.1787
     15 C4          8.5124    8.2002   21.4778 C.ar    1  lig        -0.1787
     16 C5          8.6342    9.9971   23.0968 C.ar    1  lig        -0.1394
     17 C6          7.3771    7.7443   22.1375 C.ar    1  lig         0.1292
     18 C7         11.4271   12.0177   24.7087 C.2     1  lig         0.9321
     19 C8          9.3213   11.2401   23.6294 C.3     1  lig        -0.0452
     20 C9         10.2969   11.0170   24.7854 C.3     1  lig        -0.0740
     21 N1          9.5450   11.1466   26.0330 N.4     1  lig        -0.8252
     22 O1         11.0846   13.1893   24.8530 O.co2   1  lig        -0.7573
     23 O2         12.6287   11.6956   24.4825 O.co2   1  lig        -0.7573
     24 O3          6.7757    6.6852   21.7660 O.3     1  lig        -0.4913
@<TRIPOS>BOND
     1     1    12    1
     2     2    13    1
     3     3    14    1
     4     4    15    1
     5     5    19    1
     6     6    19    1
     7     7    20    1
     8     8    21    1
     9     9    21    1
    10    10    21    1
    11    11    24    1
    12    12    14   ar
    13    12    16   ar
    14    13    15   ar
    15    13    16   ar
    16    14    17   ar
    17    15    17   ar
    18    16    19    1
    19    17    24    1
    20    18    20    1
    21    18    22    1
    22    18    23    1
    23    19    20    1
    24    20    21    1
@<TRIPOS>SUBSTRUCTURE
     1 lig         1 TEMP              0 ****  ****    0 ROOT


########## Name:		ligand
########## HA_RMSDs:		13.0068
########## HA_RMSDh:		12.9707
########## HA_RMSDm:		10.9938
########## Cluster Size:	1
##########    Grid Score:          -18.055233
##########      Grid_vdw:          -17.678162
##########       Grid_es:           -0.377071
##########    Int_energy:            2.951404

@<TRIPOS>MOLECULE
ligand
 24 24 1 0 0
SMALL
No Charge or Current Charge


@<TRIPOS>ATOM
      1 H1         10.3921    6.6737   22.8586 H       1  lig         0.1340
      2 H2         10.2472   10.1889   20.4424 H       1  lig         0.1340
      3 H3          8.1947    6.0427   22.0087 H       1  lig         0.1475
      4 H4          8.0062    9.5828   19.6179 H       1  lig         0.1475
      5 H5         12.3760    7.9461   22.4314 H       1  lig         0.0877
      6 H6         12.3985    9.3773   21.4507 H       1  lig         0.0877
      7 H7         12.8661    9.9196   23.8172 H       1  lig         0.0966
      8 H8         11.5428    8.0997   24.7782 H       1  lig         0.4431
      9 H9         11.0309    9.5352   25.4341 H       1  lig         0.4431
     10 H10        10.1325    8.8080   24.2347 H       1  lig         0.4431
     11 H11         6.1154    7.7246   20.9966 H       1  lig         0.4214
     12 C1          9.8779    7.3227   22.1543 C.ar    1  lig        -0.0999
     13 C2          9.7790    9.2724   20.7935 C.ar    1  lig        -0.0999
     14 C3          8.6480    6.9686   21.6719 C.ar    1  lig        -0.1787
     15 C4          8.5191    8.9445   20.3304 C.ar    1  lig        -0.1787
     16 C5         10.4465    8.4811   21.7213 C.ar    1  lig        -0.1394
     17 C6          7.9523    7.7666   20.8028 C.ar    1  lig         0.1292
     18 C7         11.2129   11.0794   23.2096 C.2     1  lig         0.9321
     19 C8         11.8206    8.8701   22.2328 C.3     1  lig        -0.0452
     20 C9         11.8406    9.7341   23.4942 C.3     1  lig        -0.0740
     21 N1         11.1172    9.0113   24.5396 N.4     1  lig        -0.8252
     22 O1         11.9727   11.9024   22.7037 O.co2   1  lig        -0.7573
     23 O2         10.0136   11.3625   23.4929 O.co2   1  lig        -0.7573
     24 O3          6.8196    7.3624   20.3846 O.3     1  lig        -0.4913
@<TRIPOS>BOND
     1     1    12    1
     2     2    13    1
     3     3    14    1
     4     4    15    1
     5     5    19    1
     6     6    19    1
     7     7    20    1
     8     8    21    1
     9     9    21    1
    10    10    21    1
    11    11    24    1
    12    12    14   ar
    13    12    16   ar
    14    13    15   ar
    15    13    16   ar
    16    14    17   ar
    17    15    17   ar
    18    16    19    1
    19    17    24    1
    20    18    20    1
    21    18    22    1
    22    18    23    1
    23    19    20    1
    24    20    21    1
@<TRIPOS>SUBSTRUCTURE
     1 lig         1 TEMP              0 ****  ****    0 ROOT


########## Name:		ligand
########## HA_RMSDs:		14.6723
########## HA_RMSDh:		14.6490
########## HA_RMSDm:		12.7999
########## Cluster Size:	1
##########    Grid Score:          -18.052391
##########      Grid_vdw:          -12.518963
##########       Grid_es:           -5.533428
##########    Int_energy:            2.667179

@<TRIPOS>MOLECULE
ligand
 24 24 1 0 0
SMALL
No Charge or Current Charge


@<TRIPOS>ATOM
      1 H1         26.2116    6.1166   13.4047 H       1  lig         0.1340
      2 H2         22.2003    5.7372   14.8122 H       1  lig         0.1340
      3 H3         25.4875    7.9256   11.9378 H       1  lig         0.1475
      4 H4         21.4526    7.5298   13.2968 H       1  lig         0.1475
      5 H5         25.7913    4.6886   15.1301 H       1  lig         0.0877
      6 H6         24.3992    4.8967   16.1448 H       1  lig         0.0877
      7 H7         24.0202    3.2095   13.6708 H       1  lig         0.0966
      8 H8         22.2221    3.6799   15.2621 H       1  lig         0.4431
      9 H9         22.5979    2.0659   15.3439 H       1  lig         0.4431
     10 H10        23.1550    3.1045   16.5209 H       1  lig         0.4431
     11 H11        22.1479    8.8540   11.6839 H       1  lig         0.4214
     12 C1         25.1656    6.4120   13.3862 C.ar    1  lig        -0.0999
     13 C2         22.9239    6.2230   14.1618 C.ar    1  lig        -0.0999
     14 C3         24.7578    7.4297   12.5686 C.ar    1  lig        -0.1787
     15 C4         22.4935    7.2228   13.3107 C.ar    1  lig        -0.1787
     16 C5         24.2477    5.7991   14.1828 C.ar    1  lig        -0.1394
     17 C6         23.4468    7.8191   12.4936 C.ar    1  lig         0.1292
     18 C7         25.2901    2.2669   15.0658 C.2     1  lig         0.9321
     19 C8         24.6952    4.6852   15.1101 C.3     1  lig        -0.0452
     20 C9         24.2167    3.2805   14.7416 C.3     1  lig        -0.0740
     21 N1         22.9858    3.0204   15.4873 N.4     1  lig        -0.8252
     22 O1         25.8917    2.4763   16.1169 O.co2   1  lig        -0.7573
     23 O2         25.5807    1.2946   14.3114 O.co2   1  lig        -0.7573
     24 O3         23.1457    8.7855   11.7210 O.3     1  lig        -0.4913
@<TRIPOS>BOND
     1     1    12    1
     2     2    13    1
     3     3    14    1
     4     4    15    1
     5     5    19    1
     6     6    19    1
     7     7    20    1
     8     8    21    1
     9     9    21    1
    10    10    21    1
    11    11    24    1
    12    12    14   ar
    13    12    16   ar
    14    13    15   ar
    15    13    16   ar
    16    14    17   ar
    17    15    17   ar
    18    16    19    1
    19    17    24    1
    20    18    20    1
    21    18    22    1
    22    18    23    1
    23    19    20    1
    24    20    21    1
@<TRIPOS>SUBSTRUCTURE
     1 lig         1 TEMP              0 ****  ****    0 ROOT


########## Name:		ligand
########## HA_RMSDs:		14.9623
########## HA_RMSDh:		14.9623
########## HA_RMSDm:		13.2043
########## Cluster Size:	1
##########    Grid Score:          -18.025774
##########      Grid_vdw:          -16.844381
##########       Grid_es:           -1.181393
##########    Int_energy:            2.679725

@<TRIPOS>MOLECULE
ligand
 24 24 1 0 0
SMALL
No Charge or Current Charge


@<TRIPOS>ATOM
      1 H1         25.6224    6.0969   13.7526 H       1  lig         0.1340
      2 H2         21.7329    4.8129   12.5531 H       1  lig         0.1340
      3 H3         25.1837    8.2653   12.7258 H       1  lig         0.1475
      4 H4         21.3023    6.9836   11.4705 H       1  lig         0.1475
      5 H5         25.0426    3.9163   14.0918 H       1  lig         0.0877
      6 H6         23.4675    3.9005   14.8194 H       1  lig         0.0877
      7 H7         22.5447    2.7649   12.7482 H       1  lig         0.0966
      8 H8         23.3321    1.5153   14.6989 H       1  lig         0.4431
      9 H9         23.7039    0.6558   13.3293 H       1  lig         0.4431
     10 H10        24.8920    1.5279   14.1054 H       1  lig         0.4431
     11 H11        22.1780    8.9485   11.1043 H       1  lig         0.4214
     12 C1         24.6749    6.2758   13.2507 C.ar    1  lig        -0.0999
     13 C2         22.4997    5.5836   12.5785 C.ar    1  lig        -0.0999
     14 C3         24.4241    7.4927   12.6788 C.ar    1  lig        -0.1787
     15 C4         22.2512    6.7954   11.9627 C.ar    1  lig        -0.1787
     16 C5         23.7147    5.3126   13.1972 C.ar    1  lig        -0.1394
     17 C6         23.2553    7.7551   12.0146 C.ar    1  lig         0.1292
     18 C7         24.3883    2.7350   11.7249 C.2     1  lig         0.9321
     19 C8         23.9747    3.9679   13.8493 C.3     1  lig        -0.0452
     20 C9         23.6021    2.7414   13.0159 C.3     1  lig        -0.0740
     21 N1         23.8803    1.5542   13.8231 N.4     1  lig        -0.8252
     22 O1         23.8429    3.3175   10.7901 O.co2   1  lig        -0.7573
     23 O2         25.5034    2.1541   11.5913 O.co2   1  lig        -0.7573
     24 O3         23.0871    8.9170   11.5217 O.3     1  lig        -0.4913
@<TRIPOS>BOND
     1     1    12    1
     2     2    13    1
     3     3    14    1
     4     4    15    1
     5     5    19    1
     6     6    19    1
     7     7    20    1
     8     8    21    1
     9     9    21    1
    10    10    21    1
    11    11    24    1
    12    12    14   ar
    13    12    16   ar
    14    13    15   ar
    15    13    16   ar
    16    14    17   ar
    17    15    17   ar
    18    16    19    1
    19    17    24    1
    20    18    20    1
    21    18    22    1
    22    18    23    1
    23    19    20    1
    24    20    21    1
@<TRIPOS>SUBSTRUCTURE
     1 lig         1 TEMP              0 ****  ****    0 ROOT


########## Name:		ligand
########## HA_RMSDs:		15.1462
########## HA_RMSDh:		15.1045
########## HA_RMSDm:		13.1537
########## Cluster Size:	1
##########    Grid Score:          -18.021755
##########      Grid_vdw:          -17.332346
##########       Grid_es:           -0.689410
##########    Int_energy:            5.351876

@<TRIPOS>MOLECULE
ligand
 24 24 1 0 0
SMALL
No Charge or Current Charge


@<TRIPOS>ATOM
      1 H1         21.5846    4.9538   12.4054 H       1  lig         0.1340
      2 H2         25.6737    5.8126   13.2759 H       1  lig         0.1340
      3 H3         21.3213    7.2310   11.5724 H       1  lig         0.1475
      4 H4         25.4016    8.1290   12.4824 H       1  lig         0.1475
      5 H5         24.6802    3.8165   14.0874 H       1  lig         0.0877
      6 H6         22.9689    3.5324   14.0509 H       1  lig         0.0877
      7 H7         23.1707    2.7506   11.6469 H       1  lig         0.0966
      8 H8         23.2692    1.2132   13.5478 H       1  lig         0.4431
      9 H9         24.3013    0.6693   12.3681 H       1  lig         0.4431
     10 H10        24.9122    1.4668   13.6967 H       1  lig         0.4431
     11 H11        22.1626    9.0263   11.1919 H       1  lig         0.4214
     12 C1         22.4266    5.6408   12.4338 C.ar    1  lig        -0.0999
     13 C2         24.7054    6.1394   12.9041 C.ar    1  lig        -0.0999
     14 C3         22.2832    6.9166   11.9623 C.ar    1  lig        -0.1787
     15 C4         24.5611    7.4425   12.4675 C.ar    1  lig        -0.1787
     16 C5         23.6385    5.2483   12.9134 C.ar    1  lig        -0.1394
     17 C6         23.3086    7.8239   12.0009 C.ar    1  lig         0.1292
     18 C7         25.2520    3.0692   11.5300 C.2     1  lig         0.9321
     19 C8         23.8133    3.8280   13.4165 C.3     1  lig        -0.0452
     20 C9         24.0134    2.7609   12.3397 C.3     1  lig        -0.0740
     21 N1         24.1160    1.4658   13.0111 N.4     1  lig        -0.8252
     22 O1         26.1333    3.6628   12.1479 O.co2   1  lig        -0.7573
     23 O2         25.3750    2.7763   10.3062 O.co2   1  lig        -0.7573
     24 O3         23.1043    8.9886   11.5286 O.3     1  lig        -0.4913
@<TRIPOS>BOND
     1     1    12    1
     2     2    13    1
     3     3    14    1
     4     4    15    1
     5     5    19    1
     6     6    19    1
     7     7    20    1
     8     8    21    1
     9     9    21    1
    10    10    21    1
    11    11    24    1
    12    12    14   ar
    13    12    16   ar
    14    13    15   ar
    15    13    16   ar
    16    14    17   ar
    17    15    17   ar
    18    16    19    1
    19    17    24    1
    20    18    20    1
    21    18    22    1
    22    18    23    1
    23    19    20    1
    24    20    21    1
@<TRIPOS>SUBSTRUCTURE
     1 lig         1 TEMP              0 ****  ****    0 ROOT


########## Name:		ligand
########## HA_RMSDs:		14.1015
########## HA_RMSDh:		14.0767
########## HA_RMSDm:		11.8218
########## Cluster Size:	1
##########    Grid Score:          -18.016983
##########      Grid_vdw:          -15.850715
##########       Grid_es:           -2.166268
##########    Int_energy:            1.438916

@<TRIPOS>MOLECULE
ligand
 24 24 1 0 0
SMALL
No Charge or Current Charge


@<TRIPOS>ATOM
      1 H1          9.2025   10.7947   23.4386 H       1  lig         0.1340
      2 H2          7.9254    7.3297   21.2990 H       1  lig         0.1340
      3 H3         11.1320   10.9551   21.9553 H       1  lig         0.1475
      4 H4          9.8982    7.4565   19.8289 H       1  lig         0.1475
      5 H5          7.1003    9.9267   23.8501 H       1  lig         0.0877
      6 H6          6.3317    8.7793   22.7998 H       1  lig         0.0877
      7 H7          7.8067    6.9822   24.1167 H       1  lig         0.0966
      8 H8          5.3691    7.1940   24.1360 H       1  lig         0.4431
      9 H9          5.8908    6.8963   25.6826 H       1  lig         0.4431
     10 H10         5.4639    8.4438   25.2382 H       1  lig         0.4431
     11 H11        11.8044   10.3620   19.9424 H       1  lig         0.4214
     12 C1          9.3464   10.0537   22.6563 C.ar    1  lig        -0.0999
     13 C2          8.6493    8.1280   21.4445 C.ar    1  lig        -0.0999
     14 C3         10.4246   10.1444   21.8197 C.ar    1  lig        -0.1787
     15 C4          9.7560    8.1868   20.6192 C.ar    1  lig        -0.1787
     16 C5          8.4563    9.0398   22.4760 C.ar    1  lig        -0.1394
     17 C6         10.6598    9.2201   20.8366 C.ar    1  lig         0.1292
     18 C7          8.1499    8.3998   25.6397 C.2     1  lig         0.9321
     19 C8          7.2449    8.9450   23.3840 C.3     1  lig        -0.0452
     20 C9          7.3203    7.8867   24.4851 C.3     1  lig        -0.0740
     21 N1          5.9521    7.5775   24.8989 N.4     1  lig        -0.8252
     22 O1          9.3373    8.0856   25.5968 O.co2   1  lig        -0.7573
     23 O2          7.6704    9.0717   26.5976 O.co2   1  lig        -0.7573
     24 O3         11.6760    9.3799   20.0863 O.3     1  lig        -0.4913
@<TRIPOS>BOND
     1     1    12    1
     2     2    13    1
     3     3    14    1
     4     4    15    1
     5     5    19    1
     6     6    19    1
     7     7    20    1
     8     8    21    1
     9     9    21    1
    10    10    21    1
    11    11    24    1
    12    12    14   ar
    13    12    16   ar
    14    13    15   ar
    15    13    16   ar
    16    14    17   ar
    17    15    17   ar
    18    16    19    1
    19    17    24    1
    20    18    20    1
    21    18    22    1
    22    18    23    1
    23    19    20    1
    24    20    21    1
@<TRIPOS>SUBSTRUCTURE
     1 lig         1 TEMP              0 ****  ****    0 ROOT


########## Name:		ligand
########## HA_RMSDs:		11.6721
########## HA_RMSDh:		11.6609
########## HA_RMSDm:		9.8337
########## Cluster Size:	1
##########    Grid Score:          -18.013966
##########      Grid_vdw:          -13.962763
##########       Grid_es:           -4.051202
##########    Int_energy:            1.339075

@<TRIPOS>MOLECULE
ligand
 24 24 1 0 0
SMALL
No Charge or Current Charge


@<TRIPOS>ATOM
      1 H1         24.2624   14.7388   28.2233 H       1  lig         0.1340
      2 H2         20.0813   15.3221   27.5956 H       1  lig         0.1340
      3 H3         24.3182   16.8015   29.5237 H       1  lig         0.1475
      4 H4         20.1405   17.4322   28.8657 H       1  lig         0.1475
      5 H5         22.4001   12.8047   27.6923 H       1  lig         0.0877
      6 H6         21.1038   13.3935   26.7006 H       1  lig         0.0877
      7 H7         23.8910   14.2381   25.9088 H       1  lig         0.0966
      8 H8         21.8823   14.9344   24.6976 H       1  lig         0.4431
      9 H9         22.7671   13.9219   23.7255 H       1  lig         0.4431
     10 H10        21.4165   13.3427   24.5097 H       1  lig         0.4431
     11 H11        21.7658   19.0062   29.5681 H       1  lig         0.4214
     12 C1         23.3542   15.3223   28.3510 C.ar    1  lig        -0.0999
     13 C2         21.0225   15.6637   28.0200 C.ar    1  lig        -0.0999
     14 C3         23.3814   16.4765   29.0843 C.ar    1  lig        -0.1787
     15 C4         21.0468   16.8518   28.7250 C.ar    1  lig        -0.1787
     16 C5         22.1740   14.9139   27.8095 C.ar    1  lig        -0.1394
     17 C6         22.2680   17.2566   29.2510 C.ar    1  lig         0.1292
     18 C7         23.5981   12.1693   25.6238 C.2     1  lig         0.9321
     19 C8         22.1293   13.6227   27.0146 C.3     1  lig        -0.0452
     20 C9         23.0410   13.5647   25.7885 C.3     1  lig        -0.0740
     21 N1         22.2505   13.9709   24.6271 N.4     1  lig        -0.8252
     22 O1         22.7495   11.2945   25.4644 O.co2   1  lig        -0.7573
     23 O2         24.8327   11.9014   25.6758 O.co2   1  lig        -0.7573
     24 O3         22.3672   18.3092   29.9607 O.3     1  lig        -0.4913
@<TRIPOS>BOND
     1     1    12    1
     2     2    13    1
     3     3    14    1
     4     4    15    1
     5     5    19    1
     6     6    19    1
     7     7    20    1
     8     8    21    1
     9     9    21    1
    10    10    21    1
    11    11    24    1
    12    12    14   ar
    13    12    16   ar
    14    13    15   ar
    15    13    16   ar
    16    14    17   ar
    17    15    17   ar
    18    16    19    1
    19    17    24    1
    20    18    20    1
    21    18    22    1
    22    18    23    1
    23    19    20    1
    24    20    21    1
@<TRIPOS>SUBSTRUCTURE
     1 lig         1 TEMP              0 ****  ****    0 ROOT


########## Name:		ligand
########## HA_RMSDs:		12.2318
########## HA_RMSDh:		12.1907
########## HA_RMSDm:		9.4773
########## Cluster Size:	2
##########    Grid Score:          -17.974327
##########      Grid_vdw:          -15.365638
##########       Grid_es:           -2.608689
##########    Int_energy:            3.080916

@<TRIPOS>MOLECULE
ligand
 24 24 1 0 0
SMALL
No Charge or Current Charge


@<TRIPOS>ATOM
      1 H1         15.3822   17.4482   30.3763 H       1  lig         0.1340
      2 H2         16.7914   15.7762   26.7110 H       1  lig         0.1340
      3 H3         13.3378   16.1382   30.1458 H       1  lig         0.1475
      4 H4         14.7079   14.4885   26.4465 H       1  lig         0.1475
      5 H5         17.5787   18.1547   27.8121 H       1  lig         0.0877
      6 H6         17.4163   18.2060   29.5388 H       1  lig         0.0877
      7 H7         18.9821   16.1457   27.9178 H       1  lig         0.0966
      8 H8         17.7906   15.0820   29.7714 H       1  lig         0.4431
      9 H9         19.4039   15.1627   30.1507 H       1  lig         0.4431
     10 H10        18.3408   16.2526   30.8264 H       1  lig         0.4431
     11 H11        12.6949   14.2245   27.3248 H       1  lig         0.4214
     12 C1         15.2445   16.8089   29.5079 C.ar    1  lig        -0.0999
     13 C2         16.0133   15.8586   27.4662 C.ar    1  lig        -0.0999
     14 C3         14.1014   16.0691   29.3789 C.ar    1  lig        -0.1787
     15 C4         14.8456   15.1375   27.3055 C.ar    1  lig        -0.1787
     16 C5         16.2040   16.7114   28.5473 C.ar    1  lig        -0.1394
     17 C6         13.8737   15.2696   28.2903 C.ar    1  lig         0.1292
     18 C7         19.9410   17.6061   29.0987 C.2     1  lig         0.9321
     19 C8         17.4852   17.5101   28.6939 C.3     1  lig        -0.0452
     20 C9         18.7674   16.6898   28.8387 C.3     1  lig        -0.0740
     21 N1         18.5681   15.7435   29.9358 N.4     1  lig        -0.8252
     22 O1         19.7235   18.4977   29.9162 O.co2   1  lig        -0.7573
     23 O2         21.0534   17.4982   28.5074 O.co2   1  lig        -0.7573
     24 O3         12.7926   14.5981   28.2481 O.3     1  lig        -0.4913
@<TRIPOS>BOND
     1     1    12    1
     2     2    13    1
     3     3    14    1
     4     4    15    1
     5     5    19    1
     6     6    19    1
     7     7    20    1
     8     8    21    1
     9     9    21    1
    10    10    21    1
    11    11    24    1
    12    12    14   ar
    13    12    16   ar
    14    13    15   ar
    15    13    16   ar
    16    14    17   ar
    17    15    17   ar
    18    16    19    1
    19    17    24    1
    20    18    20    1
    21    18    22    1
    22    18    23    1
    23    19    20    1
    24    20    21    1
@<TRIPOS>SUBSTRUCTURE
     1 lig         1 TEMP              0 ****  ****    0 ROOT


########## Name:		ligand
########## HA_RMSDs:		15.0570
########## HA_RMSDh:		15.0214
########## HA_RMSDm:		13.1097
########## Cluster Size:	1
##########    Grid Score:          -17.955917
##########      Grid_vdw:          -13.105371
##########       Grid_es:           -4.850547
##########    Int_energy:            2.321587

@<TRIPOS>MOLECULE
ligand
 24 24 1 0 0
SMALL
No Charge or Current Charge


@<TRIPOS>ATOM
      1 H1         24.9753    4.1847   12.5356 H       1  lig         0.1340
      2 H2         25.9191    8.3464   12.6048 H       1  lig         0.1340
      3 H3         22.6137    4.7605   12.3358 H       1  lig         0.1475
      4 H4         23.5317    8.9351   12.4535 H       1  lig         0.1475
      5 H5         27.1463    4.7838   12.7068 H       1  lig         0.0877
      6 H6         27.6076    6.1996   11.8160 H       1  lig         0.0877
      7 H7         27.2559    7.2731   14.3610 H       1  lig         0.0966
      8 H8         29.1288    7.5725   12.8153 H       1  lig         0.4431
      9 H9         29.7289    7.1669   14.3081 H       1  lig         0.4431
     10 H10        29.6493    6.0140   13.1086 H       1  lig         0.4431
     11 H11        21.4440    7.8866   12.8329 H       1  lig         0.4214
     12 C1         24.6722    5.2286   12.5251 C.ar    1  lig        -0.0999
     13 C2         25.1759    7.5541   12.5544 C.ar    1  lig        -0.0999
     14 C3         23.3490    5.5544   12.4077 C.ar    1  lig        -0.1787
     15 C4         23.8390    7.8944   12.4764 C.ar    1  lig        -0.1787
     16 C5         25.5920    6.2287   12.6056 C.ar    1  lig        -0.1394
     17 C6         22.9186    6.8547   12.4152 C.ar    1  lig         0.1292
     18 C7         27.8371    5.3568   15.0220 C.2     1  lig         0.9321
     19 C8         27.0637    5.8770   12.7121 C.3     1  lig        -0.0452
     20 C9         27.7889    6.4166   13.9454 C.3     1  lig        -0.0740
     21 N1         29.1301    6.8248   13.5294 N.4     1  lig        -0.8252
     22 O1         26.7661    4.7918   15.2329 O.co2   1  lig        -0.7573
     23 O2         28.8788    5.0836   15.6845 O.co2   1  lig        -0.7573
     24 O3         21.6722    7.0803   12.2855 O.3     1  lig        -0.4913
@<TRIPOS>BOND
     1     1    12    1
     2     2    13    1
     3     3    14    1
     4     4    15    1
     5     5    19    1
     6     6    19    1
     7     7    20    1
     8     8    21    1
     9     9    21    1
    10    10    21    1
    11    11    24    1
    12    12    14   ar
    13    12    16   ar
    14    13    15   ar
    15    13    16   ar
    16    14    17   ar
    17    15    17   ar
    18    16    19    1
    19    17    24    1
    20    18    20    1
    21    18    22    1
    22    18    23    1
    23    19    20    1
    24    20    21    1
@<TRIPOS>SUBSTRUCTURE
     1 lig         1 TEMP              0 ****  ****    0 ROOT


########## Name:		ligand
########## HA_RMSDs:		10.1457
########## HA_RMSDh:		10.0827
########## HA_RMSDm:		8.8211
########## Cluster Size:	1
##########    Grid Score:          -17.953083
##########      Grid_vdw:          -17.481314
##########       Grid_es:           -0.471770
##########    Int_energy:            1.872820

@<TRIPOS>MOLECULE
ligand
 24 24 1 0 0
SMALL
No Charge or Current Charge


@<TRIPOS>ATOM
      1 H1         13.0275   11.7882   24.4962 H       1  lig         0.1340
      2 H2         14.4700    8.9944   21.6102 H       1  lig         0.1340
      3 H3         10.8698   11.7939   23.3589 H       1  lig         0.1475
      4 H4         12.3092    9.0335   20.4276 H       1  lig         0.1475
      5 H5         15.0813   10.8180   24.8221 H       1  lig         0.0877
      6 H6         15.5533    9.3573   24.0132 H       1  lig         0.0877
      7 H7         16.0230   11.5632   22.1839 H       1  lig         0.0966
      8 H8         17.1649    9.4007   22.2670 H       1  lig         0.4431
      9 H9         18.2907   10.6057   22.4502 H       1  lig         0.4431
     10 H10        17.7693    9.7527   23.7825 H       1  lig         0.4431
     11 H11         9.7310   11.1162   21.8360 H       1  lig         0.4214
     12 C1         12.8854   11.1854   23.6028 C.ar    1  lig        -0.0999
     13 C2         13.6663    9.6224   21.9873 C.ar    1  lig        -0.0999
     14 C3         11.6749   11.1825   22.9662 C.ar    1  lig        -0.1787
     15 C4         12.4602    9.6426   21.3132 C.ar    1  lig        -0.1787
     16 C5         13.8897   10.4090   23.1114 C.ar    1  lig        -0.1394
     17 C6         11.4575   10.4584   21.8240 C.ar    1  lig         0.1292
     18 C7         16.8261   12.2912   23.9928 C.2     1  lig         0.9321
     19 C8         15.2284   10.3877   23.8245 C.3     1  lig        -0.0452
     20 C9         16.3641   11.1395   23.1297 C.3     1  lig        -0.0740
     21 N1         17.4432   10.1842   22.8817 N.4     1  lig        -0.8252
     22 O1         15.9504   13.1086   24.2678 O.co2   1  lig        -0.7573
     23 O2         18.0205   12.4346   24.3821 O.co2   1  lig        -0.7573
     24 O3         10.2990   10.4931   21.2968 O.3     1  lig        -0.4913
@<TRIPOS>BOND
     1     1    12    1
     2     2    13    1
     3     3    14    1
     4     4    15    1
     5     5    19    1
     6     6    19    1
     7     7    20    1
     8     8    21    1
     9     9    21    1
    10    10    21    1
    11    11    24    1
    12    12    14   ar
    13    12    16   ar
    14    13    15   ar
    15    13    16   ar
    16    14    17   ar
    17    15    17   ar
    18    16    19    1
    19    17    24    1
    20    18    20    1
    21    18    22    1
    22    18    23    1
    23    19    20    1
    24    20    21    1
@<TRIPOS>SUBSTRUCTURE
     1 lig         1 TEMP              0 ****  ****    0 ROOT


########## Name:		ligand
########## HA_RMSDs:		12.3169
########## HA_RMSDh:		12.2449
########## HA_RMSDm:		10.3292
########## Cluster Size:	1
##########    Grid Score:          -17.949270
##########      Grid_vdw:          -16.786173
##########       Grid_es:           -1.163098
##########    Int_energy:            2.640019

@<TRIPOS>MOLECULE
ligand
 24 24 1 0 0
SMALL
No Charge or Current Charge


@<TRIPOS>ATOM
      1 H1         11.4398    9.7240   20.3479 H       1  lig         0.1340
      2 H2          9.5262   10.9788   23.9506 H       1  lig         0.1340
      3 H3          9.4848    8.3619   19.8266 H       1  lig         0.1475
      4 H4          7.5694    9.5665   23.4549 H       1  lig         0.1475
      5 H5         12.3626   11.4570   21.5769 H       1  lig         0.0877
      6 H6         11.5083   12.2790   22.8438 H       1  lig         0.0877
      7 H7         13.8181   11.0018   23.3100 H       1  lig         0.0966
      8 H8         12.9226    8.8456   22.5780 H       1  lig         0.4431
      9 H9         13.2703    8.7565   24.1980 H       1  lig         0.4431
     10 H10        11.6923    8.9499   23.7011 H       1  lig         0.4431
     11 H11         6.6321    8.4636   21.7430 H       1  lig         0.4214
     12 C1         10.6018    9.6935   21.0397 C.ar    1  lig        -0.0999
     13 C2          9.5131   10.3855   23.0393 C.ar    1  lig        -0.0999
     14 C3          9.5020    8.9348   20.7473 C.ar    1  lig        -0.1787
     15 C4          8.4139    9.5914   22.7735 C.ar    1  lig        -0.1787
     16 C5         10.6146   10.4181   22.1920 C.ar    1  lig        -0.1394
     17 C6          8.4340    8.8463   21.6003 C.ar    1  lig         0.1292
     18 C7         12.4744   11.2497   24.9163 C.2     1  lig         0.9321
     19 C8         11.8202   11.2809   22.5131 C.3     1  lig        -0.0452
     20 C9         12.7940   10.7063   23.5425 C.3     1  lig        -0.0740
     21 N1         12.6789    9.2491   23.4982 N.4     1  lig        -0.8252
     22 O1         13.0690   12.2848   25.2087 O.co2   1  lig        -0.7573
     23 O2         11.6864   10.6803   25.7247 O.co2   1  lig        -0.7573
     24 O3          7.4389    8.1323   21.2521 O.3     1  lig        -0.4913
@<TRIPOS>BOND
     1     1    12    1
     2     2    13    1
     3     3    14    1
     4     4    15    1
     5     5    19    1
     6     6    19    1
     7     7    20    1
     8     8    21    1
     9     9    21    1
    10    10    21    1
    11    11    24    1
    12    12    14   ar
    13    12    16   ar
    14    13    15   ar
    15    13    16   ar
    16    14    17   ar
    17    15    17   ar
    18    16    19    1
    19    17    24    1
    20    18    20    1
    21    18    22    1
    22    18    23    1
    23    19    20    1
    24    20    21    1
@<TRIPOS>SUBSTRUCTURE
     1 lig         1 TEMP              0 ****  ****    0 ROOT


########## Name:		ligand
########## HA_RMSDs:		12.3199
########## HA_RMSDh:		12.2661
########## HA_RMSDm:		10.5304
########## Cluster Size:	1
##########    Grid Score:          -17.931175
##########      Grid_vdw:          -15.761264
##########       Grid_es:           -2.169911
##########    Int_energy:            2.567694

@<TRIPOS>MOLECULE
ligand
 24 24 1 0 0
SMALL
No Charge or Current Charge


@<TRIPOS>ATOM
      1 H1          9.7658   11.6049   24.2029 H       1  lig         0.1340
      2 H2         10.5754    9.0136   20.9097 H       1  lig         0.1340
      3 H3          7.5808   10.5495   24.4494 H       1  lig         0.1475
      4 H4          8.3504    7.9774   21.1214 H       1  lig         0.1475
      5 H5         11.9568   10.9540   21.3263 H       1  lig         0.0877
      6 H6         11.6130   12.1096   22.5741 H       1  lig         0.0877
      7 H7         13.6038   10.0897   22.6185 H       1  lig         0.0966
      8 H8         11.8521    8.5498   23.3579 H       1  lig         0.4431
      9 H9         12.8752    8.8442   24.6305 H       1  lig         0.4431
     10 H10        11.3976    9.6102   24.5641 H       1  lig         0.4431
     11 H11         6.0188    9.1410   22.3718 H       1  lig         0.4214
     12 C1          9.4657   10.8161   23.5176 C.ar    1  lig        -0.0999
     13 C2          9.8987    9.3564   21.6889 C.ar    1  lig        -0.0999
     14 C3          8.2432   10.2189   23.6570 C.ar    1  lig        -0.1787
     15 C4          8.6504    8.7735   21.7954 C.ar    1  lig        -0.1787
     16 C5         10.2973   10.3911   22.5274 C.ar    1  lig        -0.1394
     17 C6          7.8129    9.2389   22.8023 C.ar    1  lig         0.1292
     18 C7         13.3280   11.4817   24.1784 C.2     1  lig         0.9321
     19 C8         11.6645   11.0314   22.3800 C.3     1  lig        -0.0452
     20 C9         12.7761   10.4316   23.2417 C.3     1  lig        -0.0740
     21 N1         12.2093    9.2995   23.9737 N.4     1  lig        -0.8252
     22 O1         12.7980   11.5085   25.2871 O.co2   1  lig        -0.7573
     23 O2         14.2385   12.2963   23.8529 O.co2   1  lig        -0.7573
     24 O3          6.6685    8.7186   23.0051 O.3     1  lig        -0.4913
@<TRIPOS>BOND
     1     1    12    1
     2     2    13    1
     3     3    14    1
     4     4    15    1
     5     5    19    1
     6     6    19    1
     7     7    20    1
     8     8    21    1
     9     9    21    1
    10    10    21    1
    11    11    24    1
    12    12    14   ar
    13    12    16   ar
    14    13    15   ar
    15    13    16   ar
    16    14    17   ar
    17    15    17   ar
    18    16    19    1
    19    17    24    1
    20    18    20    1
    21    18    22    1
    22    18    23    1
    23    19    20    1
    24    20    21    1
@<TRIPOS>SUBSTRUCTURE
     1 lig         1 TEMP              0 ****  ****    0 ROOT


########## Name:		ligand
########## HA_RMSDs:		13.0398
########## HA_RMSDh:		12.9287
########## HA_RMSDm:		10.5892
########## Cluster Size:	1
##########    Grid Score:          -17.923216
##########      Grid_vdw:          -15.477350
##########       Grid_es:           -2.445866
##########    Int_energy:            1.961991

@<TRIPOS>MOLECULE
ligand
 24 24 1 0 0
SMALL
No Charge or Current Charge


@<TRIPOS>ATOM
      1 H1         11.2134    9.9975   20.4384 H       1  lig         0.1340
      2 H2          9.6798    8.9488   24.2808 H       1  lig         0.1340
      3 H3          9.9446    8.1538   19.4688 H       1  lig         0.1475
      4 H4          8.4352    7.0545   23.3155 H       1  lig         0.1475
      5 H5         12.2593   10.3309   23.4212 H       1  lig         0.0877
      6 H6         11.6203   11.4448   22.2543 H       1  lig         0.0877
      7 H7          9.6140   11.0728   24.3280 H       1  lig         0.0966
      8 H8          9.9236   13.0062   22.8607 H       1  lig         0.4431
      9 H9         10.0470   13.5081   24.4373 H       1  lig         0.4431
     10 H10        11.4259   13.2993   23.5264 H       1  lig         0.4431
     11 H11         7.7930    6.2237   21.3670 H       1  lig         0.4214
     12 C1         10.6141    9.3569   21.0804 C.ar    1  lig        -0.0999
     13 C2          9.7410    8.7589   23.2118 C.ar    1  lig        -0.0999
     14 C3          9.8973    8.3257   20.5386 C.ar    1  lig        -0.1787
     15 C4          9.0447    7.6900   22.6809 C.ar    1  lig        -0.1787
     16 C5         10.5439    9.5741   22.4222 C.ar    1  lig        -0.1394
     17 C6          9.1486    7.4779   21.3112 C.ar    1  lig         0.1292
     18 C7         11.3842   11.3677   25.4355 C.2     1  lig         0.9321
     19 C8         11.3167   10.7300   23.0286 C.3     1  lig        -0.0452
     20 C9         10.6046   11.4924   24.1465 C.3     1  lig        -0.0740
     21 N1         10.4799   12.8869   23.7240 N.4     1  lig        -0.8252
     22 O1         11.0030   10.4667   26.1795 O.co2   1  lig        -0.7573
     23 O2         12.3334   12.1402   25.7531 O.co2   1  lig        -0.7573
     24 O3          8.4955    6.5502   20.7332 O.3     1  lig        -0.4913
@<TRIPOS>BOND
     1     1    12    1
     2     2    13    1
     3     3    14    1
     4     4    15    1
     5     5    19    1
     6     6    19    1
     7     7    20    1
     8     8    21    1
     9     9    21    1
    10    10    21    1
    11    11    24    1
    12    12    14   ar
    13    12    16   ar
    14    13    15   ar
    15    13    16   ar
    16    14    17   ar
    17    15    17   ar
    18    16    19    1
    19    17    24    1
    20    18    20    1
    21    18    22    1
    22    18    23    1
    23    19    20    1
    24    20    21    1
@<TRIPOS>SUBSTRUCTURE
     1 lig         1 TEMP              0 ****  ****    0 ROOT


########## Name:		ligand
########## HA_RMSDs:		15.4704
########## HA_RMSDh:		15.4246
########## HA_RMSDm:		13.6001
########## Cluster Size:	1
##########    Grid Score:          -17.914272
##########      Grid_vdw:          -12.611849
##########       Grid_es:           -5.302424
##########    Int_energy:            2.225016

@<TRIPOS>MOLECULE
ligand
 24 24 1 0 0
SMALL
No Charge or Current Charge


@<TRIPOS>ATOM
      1 H1         25.8975    4.4285   11.7269 H       1  lig         0.1340
      2 H2         24.4628    7.9266   13.7070 H       1  lig         0.1340
      3 H3         23.6049    3.6063   11.5960 H       1  lig         0.1475
      4 H4         22.1510    7.0794   13.6227 H       1  lig         0.1475
      5 H5         27.3091    6.2916   11.9872 H       1  lig         0.0877
      6 H6         26.7753    7.8198   12.6118 H       1  lig         0.0877
      7 H7         26.8010    6.4430   14.9614 H       1  lig         0.0966
      8 H8         28.0261    8.4826   14.3904 H       1  lig         0.4431
      9 H9         29.0612    7.4350   15.1547 H       1  lig         0.4431
     10 H10        29.1260    7.5991   13.4984 H       1  lig         0.4431
     11 H11        20.9673    5.2836   13.0980 H       1  lig         0.4214
     12 C1         25.0872    5.0158   12.1515 C.ar    1  lig        -0.0999
     13 C2         24.2643    6.9612   13.2474 C.ar    1  lig        -0.0999
     14 C3         23.8001    4.5597   12.0746 C.ar    1  lig        -0.1787
     15 C4         22.9653    6.4916   13.2110 C.ar    1  lig        -0.1787
     16 C5         25.3258    6.2174   12.7449 C.ar    1  lig        -0.1394
     17 C6         22.7510    5.2533   12.6172 C.ar    1  lig         0.1292
     18 C7         28.1701    5.1187   14.0565 C.2     1  lig         0.9321
     19 C8         26.7473    6.7422   12.8137 C.3     1  lig        -0.0452
     20 C9         27.4945    6.4694   14.1196 C.3     1  lig        -0.0740
     21 N1         28.4625    7.5486   14.3116 N.4     1  lig        -0.8252
     22 O1         29.0029    5.0040   13.1599 O.co2   1  lig        -0.7573
     23 O2         27.8895    4.1624   14.8346 O.co2   1  lig        -0.7573
     24 O3         21.5784    4.7729   12.4919 O.3     1  lig        -0.4913
@<TRIPOS>BOND
     1     1    12    1
     2     2    13    1
     3     3    14    1
     4     4    15    1
     5     5    19    1
     6     6    19    1
     7     7    20    1
     8     8    21    1
     9     9    21    1
    10    10    21    1
    11    11    24    1
    12    12    14   ar
    13    12    16   ar
    14    13    15   ar
    15    13    16   ar
    16    14    17   ar
    17    15    17   ar
    18    16    19    1
    19    17    24    1
    20    18    20    1
    21    18    22    1
    22    18    23    1
    23    19    20    1
    24    20    21    1
@<TRIPOS>SUBSTRUCTURE
     1 lig         1 TEMP              0 ****  ****    0 ROOT


########## Name:		ligand
########## HA_RMSDs:		12.6795
########## HA_RMSDh:		12.6223
########## HA_RMSDm:		10.4166
########## Cluster Size:	1
##########    Grid Score:          -17.891237
##########      Grid_vdw:          -17.058271
##########       Grid_es:           -0.832967
##########    Int_energy:            1.015166

@<TRIPOS>MOLECULE
ligand
 24 24 1 0 0
SMALL
No Charge or Current Charge


@<TRIPOS>ATOM
      1 H1         11.1600   13.4969   25.5032 H       1  lig         0.1340
      2 H2          8.5355   10.1343   25.3584 H       1  lig         0.1340
      3 H3         10.9591   13.5032   27.9339 H       1  lig         0.1475
      4 H4          8.2886   10.1661   27.8093 H       1  lig         0.1475
      5 H5          8.9708   11.7155   23.3441 H       1  lig         0.0877
      6 H6         10.3442   12.7746   23.3956 H       1  lig         0.0877
      7 H7         11.1916   10.0256   23.9834 H       1  lig         0.0966
      8 H8         12.5932   11.8783   23.2152 H       1  lig         0.4431
      9 H9         12.6576   10.6593   22.0914 H       1  lig         0.4431
     10 H10        11.7051   11.9958   21.8069 H       1  lig         0.4431
     11 H11         8.8074   11.3510   29.6011 H       1  lig         0.4214
     12 C1         10.5231   12.7661   25.9951 C.ar    1  lig        -0.0999
     13 C2          9.0640   10.8871   25.9385 C.ar    1  lig        -0.0999
     14 C3         10.4129   12.7639   27.3584 C.ar    1  lig        -0.1787
     15 C4          8.9138   10.9009   27.3120 C.ar    1  lig        -0.1787
     16 C5          9.8429   11.8302   25.2779 C.ar    1  lig        -0.1394
     17 C6          9.6034   11.8786   28.0194 C.ar    1  lig         0.1292
     18 C7         10.0638    9.8692   22.2084 C.2     1  lig         0.9321
     19 C8          9.9777   11.8101   23.7672 C.3     1  lig        -0.0452
     20 C9         10.8565   10.6984   23.1927 C.3     1  lig        -0.0740
     21 N1         12.0133   11.3293   22.5584 N.4     1  lig        -0.8252
     22 O1          9.5842    8.8387   22.6762 O.co2   1  lig        -0.7573
     23 O2          9.9230   10.1793   20.9907 O.co2   1  lig        -0.7573
     24 O3          9.5648   11.9272   29.2912 O.3     1  lig        -0.4913
@<TRIPOS>BOND
     1     1    12    1
     2     2    13    1
     3     3    14    1
     4     4    15    1
     5     5    19    1
     6     6    19    1
     7     7    20    1
     8     8    21    1
     9     9    21    1
    10    10    21    1
    11    11    24    1
    12    12    14   ar
    13    12    16   ar
    14    13    15   ar
    15    13    16   ar
    16    14    17   ar
    17    15    17   ar
    18    16    19    1
    19    17    24    1
    20    18    20    1
    21    18    22    1
    22    18    23    1
    23    19    20    1
    24    20    21    1
@<TRIPOS>SUBSTRUCTURE
     1 lig         1 TEMP              0 ****  ****    0 ROOT


########## Name:		ligand
########## HA_RMSDs:		15.1117
########## HA_RMSDh:		15.0459
########## HA_RMSDm:		12.7543
########## Cluster Size:	1
##########    Grid Score:          -17.881878
##########      Grid_vdw:          -14.065950
##########       Grid_es:           -3.815928
##########    Int_energy:            3.914266

@<TRIPOS>MOLECULE
ligand
 24 24 1 0 0
SMALL
No Charge or Current Charge


@<TRIPOS>ATOM
      1 H1         25.1889    8.1232   14.3292 H       1  lig         0.1340
      2 H2         25.0557    4.2252   12.5963 H       1  lig         0.1340
      3 H3         23.0919    8.6559   13.2034 H       1  lig         0.1475
      4 H4         22.9636    4.7734   11.4165 H       1  lig         0.1475
      5 H5         26.5336    6.2828   15.2137 H       1  lig         0.0877
      6 H6         26.6143    4.7320   14.4397 H       1  lig         0.0877
      7 H7         28.6690    6.3112   14.2208 H       1  lig         0.0966
      8 H8         27.3585    8.2719   13.5687 H       1  lig         0.4431
      9 H9         28.3993    7.8913   12.3338 H       1  lig         0.4431
     10 H10        26.7914    7.4718   12.2182 H       1  lig         0.4431
     11 H11        21.9220    7.0712   10.6961 H       1  lig         0.4214
     12 C1         24.7154    7.3829   13.6894 C.ar    1  lig        -0.0999
     13 C2         24.6169    5.2127   12.7183 C.ar    1  lig        -0.0999
     14 C3         23.5366    7.6771   13.0612 C.ar    1  lig        -0.1787
     15 C4         23.4469    5.5128   12.0471 C.ar    1  lig        -0.1787
     16 C5         25.2646    6.1497   13.5151 C.ar    1  lig        -0.1394
     17 C6         22.9171    6.7852   12.2264 C.ar    1  lig         0.1292
     18 C7         28.2346    5.1869   12.4905 C.2     1  lig         0.9321
     19 C8         26.5595    5.8064   14.2267 C.3     1  lig        -0.0452
     20 C9         27.8434    6.2298   13.5123 C.3     1  lig        -0.0740
     21 N1         27.5976    7.5300   12.8896 N.4     1  lig        -0.8252
     22 O1         28.5161    4.0876   12.9625 O.co2   1  lig        -0.7573
     23 O2         28.3035    5.4190   11.2494 O.co2   1  lig        -0.7573
     24 O3         21.8135    7.1247   11.6896 O.3     1  lig        -0.4913
@<TRIPOS>BOND
     1     1    12    1
     2     2    13    1
     3     3    14    1
     4     4    15    1
     5     5    19    1
     6     6    19    1
     7     7    20    1
     8     8    21    1
     9     9    21    1
    10    10    21    1
    11    11    24    1
    12    12    14   ar
    13    12    16   ar
    14    13    15   ar
    15    13    16   ar
    16    14    17   ar
    17    15    17   ar
    18    16    19    1
    19    17    24    1
    20    18    20    1
    21    18    22    1
    22    18    23    1
    23    19    20    1
    24    20    21    1
@<TRIPOS>SUBSTRUCTURE
     1 lig         1 TEMP              0 ****  ****    0 ROOT


########## Name:		ligand
########## HA_RMSDs:		14.1071
########## HA_RMSDh:		14.0422
########## HA_RMSDm:		12.2525
########## Cluster Size:	1
##########    Grid Score:          -17.839211
##########      Grid_vdw:          -17.564905
##########       Grid_es:           -0.274306
##########    Int_energy:            2.409687

@<TRIPOS>MOLECULE
ligand
 24 24 1 0 0
SMALL
No Charge or Current Charge


@<TRIPOS>ATOM
      1 H1         24.7181    8.3656   12.7660 H       1  lig         0.1340
      2 H2         24.3838    5.3373   15.7549 H       1  lig         0.1340
      3 H3         26.1974    9.6151   14.2490 H       1  lig         0.1475
      4 H4         25.8371    6.6178   17.2772 H       1  lig         0.1475
      5 H5         22.5401    5.9575   13.7121 H       1  lig         0.0877
      6 H6         23.3810    6.5290   12.3061 H       1  lig         0.0877
      7 H7         23.7454    3.8994   13.7695 H       1  lig         0.0966
      8 H8         25.9613    4.9145   13.5548 H       1  lig         0.4431
      9 H9         25.8356    3.6725   12.4618 H       1  lig         0.4431
     10 H10        25.6774    5.2478   11.9442 H       1  lig         0.4431
     11 H11        26.8717    8.5528   17.4863 H       1  lig         0.4214
     12 C1         24.9500    7.9747   13.7535 C.ar    1  lig        -0.0999
     13 C2         24.7839    6.2953   15.4312 C.ar    1  lig        -0.0999
     14 C3         25.7836    8.6707   14.5851 C.ar    1  lig        -0.1787
     15 C4         25.5927    7.0090   16.2947 C.ar    1  lig        -0.1787
     16 C5         24.4408    6.7853   14.1764 C.ar    1  lig        -0.1394
     17 C6         26.0839    8.2296   15.8466 C.ar    1  lig         0.1292
     18 C7         23.2507    4.0477   11.7249 C.2     1  lig         0.9321
     19 C8         23.5343    5.9951   13.2518 C.3     1  lig        -0.0452
     20 C9         23.9838    4.5672   12.9404 C.3     1  lig        -0.0740
     21 N1         25.4305    4.5930   12.7279 N.4     1  lig        -0.8252
     22 O1         22.0405    4.2622   11.7262 O.co2   1  lig        -0.7573
     23 O2         23.8160    3.4129   10.7889 O.co2   1  lig        -0.7573
     24 O3         26.8806    8.9240   16.5568 O.3     1  lig        -0.4913
@<TRIPOS>BOND
     1     1    12    1
     2     2    13    1
     3     3    14    1
     4     4    15    1
     5     5    19    1
     6     6    19    1
     7     7    20    1
     8     8    21    1
     9     9    21    1
    10    10    21    1
    11    11    24    1
    12    12    14   ar
    13    12    16   ar
    14    13    15   ar
    15    13    16   ar
    16    14    17   ar
    17    15    17   ar
    18    16    19    1
    19    17    24    1
    20    18    20    1
    21    18    22    1
    22    18    23    1
    23    19    20    1
    24    20    21    1
@<TRIPOS>SUBSTRUCTURE
     1 lig         1 TEMP              0 ****  ****    0 ROOT


########## Name:		ligand
########## HA_RMSDs:		14.4919
########## HA_RMSDh:		14.4256
########## HA_RMSDm:		12.5108
########## Cluster Size:	1
##########    Grid Score:          -17.819729
##########      Grid_vdw:          -14.569420
##########       Grid_es:           -3.250309
##########    Int_energy:            3.631910

@<TRIPOS>MOLECULE
ligand
 24 24 1 0 0
SMALL
No Charge or Current Charge


@<TRIPOS>ATOM
      1 H1          6.8285    8.1966   21.3404 H       1  lig         0.1340
      2 H2          9.7077    9.7170   24.0998 H       1  lig         0.1340
      3 H3          8.4817    8.4009   19.5587 H       1  lig         0.1475
      4 H4         11.3660    9.9729   22.2961 H       1  lig         0.1475
      5 H5          7.5148    9.3809   24.8079 H       1  lig         0.0877
      6 H6          6.1995    9.3241   23.6777 H       1  lig         0.0877
      7 H7          6.4564    6.8053   23.5364 H       1  lig         0.0966
      8 H8          4.9171    7.8896   25.0990 H       1  lig         0.4431
      9 H9          5.5458    6.5355   25.8229 H       1  lig         0.4431
     10 H10         6.1351    8.0393   26.2302 H       1  lig         0.4431
     11 H11        10.2856    9.3975   18.9771 H       1  lig         0.4214
     12 C1          7.8162    8.5929   21.5619 C.ar    1  lig        -0.0999
     13 C2          9.4396    9.4355   23.0842 C.ar    1  lig        -0.0999
     14 C3          8.7470    8.7034   20.5658 C.ar    1  lig        -0.1787
     15 C4         10.3744    9.5890   22.0783 C.ar    1  lig        -0.1787
     16 C5          8.1572    8.9651   22.8260 C.ar    1  lig        -0.1394
     17 C6          9.9950    9.2200   20.7931 C.ar    1  lig         0.1292
     18 C7          8.0827    6.7164   24.8758 C.2     1  lig         0.9321
     19 C8          7.1392    8.8239   23.9416 C.3     1  lig        -0.0452
     20 C9          6.8256    7.3925   24.3785 C.3     1  lig        -0.0740
     21 N1          5.8010    7.4599   25.4198 N.4     1  lig        -0.8252
     22 O1          8.8575    7.4556   25.4792 O.co2   1  lig        -0.7573
     23 O2          8.3469    5.4975   24.6683 O.co2   1  lig        -0.7573
     24 O3         10.8131    9.2766   19.8190 O.3     1  lig        -0.4913
@<TRIPOS>BOND
     1     1    12    1
     2     2    13    1
     3     3    14    1
     4     4    15    1
     5     5    19    1
     6     6    19    1
     7     7    20    1
     8     8    21    1
     9     9    21    1
    10    10    21    1
    11    11    24    1
    12    12    14   ar
    13    12    16   ar
    14    13    15   ar
    15    13    16   ar
    16    14    17   ar
    17    15    17   ar
    18    16    19    1
    19    17    24    1
    20    18    20    1
    21    18    22    1
    22    18    23    1
    23    19    20    1
    24    20    21    1
@<TRIPOS>SUBSTRUCTURE
     1 lig         1 TEMP              0 ****  ****    0 ROOT


########## Name:		ligand
########## HA_RMSDs:		14.9248
########## HA_RMSDh:		14.8557
########## HA_RMSDm:		13.0686
########## Cluster Size:	1
##########    Grid Score:          -17.810997
##########      Grid_vdw:          -15.198747
##########       Grid_es:           -2.612250
##########    Int_energy:            3.101753

@<TRIPOS>MOLECULE
ligand
 24 24 1 0 0
SMALL
No Charge or Current Charge


@<TRIPOS>ATOM
      1 H1         24.9271    4.4567   14.5210 H       1  lig         0.1340
      2 H2         24.4625    8.4028   12.9628 H       1  lig         0.1340
      3 H3         23.0181    3.7420   13.1816 H       1  lig         0.1475
      4 H4         22.5030    7.6993   11.6458 H       1  lig         0.1475
      5 H5         25.7914    7.9376   15.0265 H       1  lig         0.0877
      6 H6         26.0979    6.3178   15.5679 H       1  lig         0.0877
      7 H7         28.1581    7.1068   14.6233 H       1  lig         0.0966
      8 H8         27.1624    8.9457   13.3531 H       1  lig         0.4431
      9 H9         28.1490    8.0733   12.3439 H       1  lig         0.4431
     10 H10        26.4980    7.8660   12.2675 H       1  lig         0.4431
     11 H11        21.7533    5.5489   10.7426 H       1  lig         0.4214
     12 C1         24.4013    5.1781   13.9006 C.ar    1  lig        -0.0999
     13 C2         24.1283    7.3692   13.0133 C.ar    1  lig        -0.0999
     14 C3         23.3339    4.7789   13.1443 C.ar    1  lig        -0.1787
     15 C4         23.0243    6.9859   12.2761 C.ar    1  lig        -0.1787
     16 C5         24.7996    6.4784   13.8430 C.ar    1  lig        -0.1394
     17 C6         22.6262    5.6573   12.3674 C.ar    1  lig         0.1292
     18 C7         27.5810    5.5892   13.2777 C.2     1  lig         0.9321
     19 C8         25.9970    6.9250   14.6601 C.3     1  lig        -0.0452
     20 C9         27.3379    6.9332   13.9253 C.3     1  lig        -0.0740
     21 N1         27.2960    8.0093   12.9359 N.4     1  lig        -0.8252
     22 O1         27.8622    4.6859   14.0624 O.co2   1  lig        -0.7573
     23 O2         27.5348    5.3992   12.0285 O.co2   1  lig        -0.7573
     24 O3         21.6539    5.2084   11.6785 O.3     1  lig        -0.4913
@<TRIPOS>BOND
     1     1    12    1
     2     2    13    1
     3     3    14    1
     4     4    15    1
     5     5    19    1
     6     6    19    1
     7     7    20    1
     8     8    21    1
     9     9    21    1
    10    10    21    1
    11    11    24    1
    12    12    14   ar
    13    12    16   ar
    14    13    15   ar
    15    13    16   ar
    16    14    17   ar
    17    15    17   ar
    18    16    19    1
    19    17    24    1
    20    18    20    1
    21    18    22    1
    22    18    23    1
    23    19    20    1
    24    20    21    1
@<TRIPOS>SUBSTRUCTURE
     1 lig         1 TEMP              0 ****  ****    0 ROOT


########## Name:		ligand
########## HA_RMSDs:		12.3377
########## HA_RMSDh:		12.2910
########## HA_RMSDm:		8.6719
########## Cluster Size:	1
##########    Grid Score:          -17.800272
##########      Grid_vdw:          -15.717916
##########       Grid_es:           -2.082355
##########    Int_energy:            2.798202

@<TRIPOS>MOLECULE
ligand
 24 24 1 0 0
SMALL
No Charge or Current Charge


@<TRIPOS>ATOM
      1 H1         15.1072   13.5245   26.5362 H       1  lig         0.1340
      2 H2         13.3475   16.3162   29.2428 H       1  lig         0.1340
      3 H3         16.4005   15.3452   25.5558 H       1  lig         0.1475
      4 H4         14.6133   18.1681   28.2244 H       1  lig         0.1475
      5 H5         12.3506   14.0745   28.8318 H       1  lig         0.0877
      6 H6         13.1263   12.8955   27.8223 H       1  lig         0.0877
      7 H7         14.9011   12.5403   29.5399 H       1  lig         0.0966
      8 H8         12.7997   11.2906   29.6358 H       1  lig         0.4431
      9 H9         13.3222   11.5752   31.1847 H       1  lig         0.4431
     10 H10        12.0951   12.5012   30.5434 H       1  lig         0.4431
     11 H11        17.1189   17.3076   25.8836 H       1  lig         0.4214
     12 C1         14.9849   14.5375   26.9110 C.ar    1  lig        -0.0999
     13 C2         14.0221   16.1102   28.4150 C.ar    1  lig        -0.0999
     14 C3         15.7129   15.5595   26.3667 C.ar    1  lig        -0.1787
     15 C4         14.7226   17.1566   27.8462 C.ar    1  lig        -0.1787
     16 C5         14.1303   14.8102   27.9348 C.ar    1  lig        -0.1394
     17 C6         15.5737   16.8549   26.7896 C.ar    1  lig         0.1292
     18 C7         14.2799   14.0894   30.8287 C.2     1  lig         0.9321
     19 C8         13.3364   13.6791   28.5603 C.3     1  lig        -0.0452
     20 C9         13.9617   13.0320   29.7966 C.3     1  lig        -0.0740
     21 N1         13.0124   12.0451   30.3099 N.4     1  lig        -0.8252
     22 O1         15.4635   14.4169   30.8784 O.co2   1  lig        -0.7573
     23 O2         13.4162   14.5841   31.6085 O.co2   1  lig        -0.7573
     24 O3         16.2976   17.7502   26.2458 O.3     1  lig        -0.4913
@<TRIPOS>BOND
     1     1    12    1
     2     2    13    1
     3     3    14    1
     4     4    15    1
     5     5    19    1
     6     6    19    1
     7     7    20    1
     8     8    21    1
     9     9    21    1
    10    10    21    1
    11    11    24    1
    12    12    14   ar
    13    12    16   ar
    14    13    15   ar
    15    13    16   ar
    16    14    17   ar
    17    15    17   ar
    18    16    19    1
    19    17    24    1
    20    18    20    1
    21    18    22    1
    22    18    23    1
    23    19    20    1
    24    20    21    1
@<TRIPOS>SUBSTRUCTURE
     1 lig         1 TEMP              0 ****  ****    0 ROOT


########## Name:		ligand
########## HA_RMSDs:		12.2163
########## HA_RMSDh:		12.1584
########## HA_RMSDm:		10.3059
########## Cluster Size:	1
##########    Grid Score:          -17.793423
##########      Grid_vdw:          -17.056013
##########       Grid_es:           -0.737409
##########    Int_energy:            2.702607

@<TRIPOS>MOLECULE
ligand
 24 24 1 0 0
SMALL
No Charge or Current Charge


@<TRIPOS>ATOM
      1 H1          9.6388   10.8995   23.7003 H       1  lig         0.1340
      2 H2         11.8992    9.5193   20.3535 H       1  lig         0.1340
      3 H3          7.7999    9.4542   23.0084 H       1  lig         0.1475
      4 H4         10.0273    8.0950   19.6210 H       1  lig         0.1475
      5 H5         12.6206   11.4373   21.6016 H       1  lig         0.0877
      6 H6         11.6629   12.1715   22.8484 H       1  lig         0.0877
      7 H7         13.9855   10.9271   23.3866 H       1  lig         0.0966
      8 H8         13.1681    8.7820   22.5397 H       1  lig         0.4431
      9 H9         13.4309    8.6456   24.1723 H       1  lig         0.4431
     10 H10        11.8783    8.8301   23.5980 H       1  lig         0.4431
     11 H11         6.9444    8.4571   21.2442 H       1  lig         0.4214
     12 C1          9.7344   10.2953   22.8017 C.ar    1  lig        -0.0999
     13 C2         10.9794    9.5064   20.9334 C.ar    1  lig        -0.0999
     14 C3          8.7069    9.4798   22.4145 C.ar    1  lig        -0.1787
     15 C4          9.9328    8.7093   20.5107 C.ar    1  lig        -0.1787
     16 C5         10.8743   10.3168   22.0580 C.ar    1  lig        -0.1394
     17 C6          8.7730    8.7201   21.2766 C.ar    1  lig         0.1292
     18 C7         12.5544   11.1012   24.9256 C.2     1  lig         0.9321
     19 C8         12.0280   11.2003   22.4930 C.3     1  lig        -0.0452
     20 C9         12.9558   10.6080   23.5543 C.3     1  lig        -0.0740
     21 N1         12.8688    9.1514   23.4579 N.4     1  lig        -0.8252
     22 O1         11.9345   10.2840   25.6027 O.co2   1  lig        -0.7573
     23 O2         12.7999   12.2684   25.3455 O.co2   1  lig        -0.7573
     24 O3          7.7826    7.9731   20.9894 O.3     1  lig        -0.4913
@<TRIPOS>BOND
     1     1    12    1
     2     2    13    1
     3     3    14    1
     4     4    15    1
     5     5    19    1
     6     6    19    1
     7     7    20    1
     8     8    21    1
     9     9    21    1
    10    10    21    1
    11    11    24    1
    12    12    14   ar
    13    12    16   ar
    14    13    15   ar
    15    13    16   ar
    16    14    17   ar
    17    15    17   ar
    18    16    19    1
    19    17    24    1
    20    18    20    1
    21    18    22    1
    22    18    23    1
    23    19    20    1
    24    20    21    1
@<TRIPOS>SUBSTRUCTURE
     1 lig         1 TEMP              0 ****  ****    0 ROOT


########## Name:		ligand
########## HA_RMSDs:		14.9988
########## HA_RMSDh:		14.9662
########## HA_RMSDm:		13.3158
########## Cluster Size:	1
##########    Grid Score:          -17.766108
##########      Grid_vdw:          -15.563428
##########       Grid_es:           -2.202680
##########    Int_energy:            1.552099

@<TRIPOS>MOLECULE
ligand
 24 24 1 0 0
SMALL
No Charge or Current Charge


@<TRIPOS>ATOM
      1 H1         21.6153    4.6598   12.2629 H       1  lig         0.1340
      2 H2         25.6912    5.5159   13.1958 H       1  lig         0.1340
      3 H3         21.3010    7.0003   11.6531 H       1  lig         0.1475
      4 H4         25.3676    7.8914   12.6292 H       1  lig         0.1475
      5 H5         23.2501    2.8863   12.4804 H       1  lig         0.0877
      6 H6         24.8999    3.1741   12.9342 H       1  lig         0.0877
      7 H7         22.4865    3.2919   14.8097 H       1  lig         0.0966
      8 H8         24.1975    4.9492   15.3688 H       1  lig         0.4431
      9 H9         24.2567    3.7239   16.4860 H       1  lig         0.4431
     10 H10        25.3899    3.7857   15.2668 H       1  lig         0.4431
     11 H11        22.0864    8.8546   11.5004 H       1  lig         0.4214
     12 C1         22.4434    5.3582   12.3537 C.ar    1  lig        -0.0999
     13 C2         24.7143    5.8566   12.8608 C.ar    1  lig        -0.0999
     14 C3         22.2714    6.6701   12.0073 C.ar    1  lig        -0.1787
     15 C4         24.5411    7.1922   12.5517 C.ar    1  lig        -0.1787
     16 C5         23.6658    4.9467   12.7887 C.ar    1  lig        -0.1394
     17 C6         23.2785    7.5906   12.1288 C.ar    1  lig         0.1292
     18 C7         23.7922    1.6360   14.8155 C.2     1  lig         0.9321
     19 C8         23.8722    3.4887   13.1526 C.3     1  lig        -0.0452
     20 C9         23.5410    3.1103   14.5966 C.3     1  lig        -0.0740
     21 N1         24.3707    3.9353   15.4738 N.4     1  lig        -0.8252
     22 O1         22.8248    0.9124   14.5895 O.co2   1  lig        -0.7573
     23 O2         24.8929    1.1707   15.2289 O.co2   1  lig        -0.7573
     24 O3         23.0478    8.7906   11.7711 O.3     1  lig        -0.4913
@<TRIPOS>BOND
     1     1    12    1
     2     2    13    1
     3     3    14    1
     4     4    15    1
     5     5    19    1
     6     6    19    1
     7     7    20    1
     8     8    21    1
     9     9    21    1
    10    10    21    1
    11    11    24    1
    12    12    14   ar
    13    12    16   ar
    14    13    15   ar
    15    13    16   ar
    16    14    17   ar
    17    15    17   ar
    18    16    19    1
    19    17    24    1
    20    18    20    1
    21    18    22    1
    22    18    23    1
    23    19    20    1
    24    20    21    1
@<TRIPOS>SUBSTRUCTURE
     1 lig         1 TEMP              0 ****  ****    0 ROOT


########## Name:		ligand
########## HA_RMSDs:		14.9052
########## HA_RMSDh:		14.8222
########## HA_RMSDm:		12.5615
########## Cluster Size:	1
##########    Grid Score:          -17.757893
##########      Grid_vdw:          -13.955925
##########       Grid_es:           -3.801969
##########    Int_energy:            2.944545

@<TRIPOS>MOLECULE
ligand
 24 24 1 0 0
SMALL
No Charge or Current Charge


@<TRIPOS>ATOM
      1 H1         25.7008    5.6744   11.7158 H       1  lig         0.1340
      2 H2         24.3106    7.3663   15.3792 H       1  lig         0.1340
      3 H3         23.9168    4.0164   11.8465 H       1  lig         0.1475
      4 H4         22.5373    5.6641   15.5433 H       1  lig         0.1475
      5 H5         26.3672    7.9052   12.4075 H       1  lig         0.0877
      6 H6         25.9083    8.5931   13.9329 H       1  lig         0.0877
      7 H7         28.3465    7.2289   13.2795 H       1  lig         0.0966
      8 H8         27.1610    5.1940   13.9431 H       1  lig         0.4431
      9 H9         28.2854    5.5598   15.1071 H       1  lig         0.4431
     10 H10        26.6790    5.9132   15.3701 H       1  lig         0.4431
     11 H11        22.1185    3.4805   14.6177 H       1  lig         0.4214
     12 C1         25.0189    5.6794   12.5623 C.ar    1  lig        -0.0999
     13 C2         24.2221    6.6110   14.6019 C.ar    1  lig        -0.0999
     14 C3         24.0142    4.7542   12.6354 C.ar    1  lig        -0.1787
     15 C4         23.2284    5.6565   14.7063 C.ar    1  lig        -0.1787
     16 C5         25.1311    6.6091   13.5502 C.ar    1  lig        -0.1394
     17 C6         23.1474    4.7067   13.6949 C.ar    1  lig         0.1292
     18 C7         28.0166    8.2603   15.0890 C.2     1  lig         0.9321
     19 C8         26.2276    7.6538   13.4654 C.3     1  lig        -0.0452
     20 C9         27.5791    7.2486   14.0547 C.3     1  lig        -0.0740
     21 N1         27.4293    5.9144   14.6345 N.4     1  lig        -0.8252
     22 O1         27.2771    8.3456   16.0670 O.co2   1  lig        -0.7573
     23 O2         29.0401    8.9914   14.9590 O.co2   1  lig        -0.7573
     24 O3         22.2272    3.8266   13.6849 O.3     1  lig        -0.4913
@<TRIPOS>BOND
     1     1    12    1
     2     2    13    1
     3     3    14    1
     4     4    15    1
     5     5    19    1
     6     6    19    1
     7     7    20    1
     8     8    21    1
     9     9    21    1
    10    10    21    1
    11    11    24    1
    12    12    14   ar
    13    12    16   ar
    14    13    15   ar
    15    13    16   ar
    16    14    17   ar
    17    15    17   ar
    18    16    19    1
    19    17    24    1
    20    18    20    1
    21    18    22    1
    22    18    23    1
    23    19    20    1
    24    20    21    1
@<TRIPOS>SUBSTRUCTURE
     1 lig         1 TEMP              0 ****  ****    0 ROOT


########## Name:		ligand
########## HA_RMSDs:		14.5186
########## HA_RMSDh:		14.4507
########## HA_RMSDm:		12.4449
########## Cluster Size:	1
##########    Grid Score:          -17.756708
##########      Grid_vdw:          -17.754747
##########       Grid_es:           -0.001961
##########    Int_energy:            6.530416

@<TRIPOS>MOLECULE
ligand
 24 24 1 0 0
SMALL
No Charge or Current Charge


@<TRIPOS>ATOM
      1 H1          9.6138    9.2730   22.5711 H       1  lig         0.1340
      2 H2          5.7477    8.2575   24.0669 H       1  lig         0.1340
      3 H3          9.2866    7.6843   20.7495 H       1  lig         0.1475
      4 H4          5.4311    6.6151   22.2582 H       1  lig         0.1475
      5 H5          7.3625   10.7619   24.2979 H       1  lig         0.0877
      6 H6          7.4111    9.4995   25.4873 H       1  lig         0.0877
      7 H7         10.0155    9.3739   24.6844 H       1  lig         0.0966
      8 H8          9.1419    9.7584   26.9374 H       1  lig         0.4431
      9 H9         10.3539   10.8522   26.6415 H       1  lig         0.4431
     10 H10         8.7630   11.3360   26.5455 H       1  lig         0.4431
     11 H11         6.3761    5.7917   20.4720 H       1  lig         0.4214
     12 C1          8.6961    8.6928   22.5178 C.ar    1  lig        -0.0999
     13 C2          6.5347    8.1167   23.3297 C.ar    1  lig        -0.0999
     14 C3          8.5076    7.8053   21.4944 C.ar    1  lig        -0.1787
     15 C4          6.3505    7.1884   22.3230 C.ar    1  lig        -0.1787
     16 C5          7.7115    8.8478   23.4448 C.ar    1  lig        -0.1394
     17 C6          7.3788    7.0352   21.4005 C.ar    1  lig         0.1292
     18 C7          9.7999   11.3687   24.0354 C.2     1  lig         0.9321
     19 C8          7.9018    9.8471   24.5701 C.3     1  lig        -0.0452
     20 C9          9.3501   10.2117   24.8978 C.3     1  lig        -0.0740
     21 N1          9.4140   10.5425   26.3209 N.4     1  lig        -0.8252
     22 O1          9.0202   12.3182   24.0047 O.co2   1  lig        -0.7573
     23 O2         10.8732   11.3632   23.3669 O.co2   1  lig        -0.7573
     24 O3          7.2675    6.2425   20.4102 O.3     1  lig        -0.4913
@<TRIPOS>BOND
     1     1    12    1
     2     2    13    1
     3     3    14    1
     4     4    15    1
     5     5    19    1
     6     6    19    1
     7     7    20    1
     8     8    21    1
     9     9    21    1
    10    10    21    1
    11    11    24    1
    12    12    14   ar
    13    12    16   ar
    14    13    15   ar
    15    13    16   ar
    16    14    17   ar
    17    15    17   ar
    18    16    19    1
    19    17    24    1
    20    18    20    1
    21    18    22    1
    22    18    23    1
    23    19    20    1
    24    20    21    1
@<TRIPOS>SUBSTRUCTURE
     1 lig         1 TEMP              0 ****  ****    0 ROOT


########## Name:		ligand
########## HA_RMSDs:		14.4863
########## HA_RMSDh:		14.4116
########## HA_RMSDm:		12.0625
########## Cluster Size:	1
##########    Grid Score:          -17.743391
##########      Grid_vdw:          -15.850705
##########       Grid_es:           -1.892685
##########    Int_energy:            1.628978

@<TRIPOS>MOLECULE
ligand
 24 24 1 0 0
SMALL
No Charge or Current Charge


@<TRIPOS>ATOM
      1 H1          8.9724    9.5592   21.7906 H       1  lig         0.1340
      2 H2          7.9711    9.5314   25.9393 H       1  lig         0.1340
      3 H3          7.0229    8.1620   21.3477 H       1  lig         0.1475
      4 H4          6.0289    8.0791   25.5058 H       1  lig         0.1475
      5 H5         10.3862   10.0274   24.9777 H       1  lig         0.0877
      6 H6         10.4886   10.5119   23.3147 H       1  lig         0.0877
      7 H7          8.4350   12.1581   24.4246 H       1  lig         0.0966
      8 H8         10.1020   12.7252   22.7256 H       1  lig         0.4431
      9 H9         10.2003   13.8306   23.9591 H       1  lig         0.4431
     10 H10        11.3257   12.6071   23.8545 H       1  lig         0.4431
     11 H11         4.6617    7.5642   23.6648 H       1  lig         0.4214
     12 C1          8.3398    9.2370   22.6137 C.ar    1  lig        -0.0999
     13 C2          7.7585    9.2139   24.9212 C.ar    1  lig        -0.0999
     14 C3          7.2428    8.4580   22.3676 C.ar    1  lig        -0.1787
     15 C4          6.6708    8.3940   24.6891 C.ar    1  lig        -0.1787
     16 C5          8.6062    9.6134   23.8944 C.ar    1  lig        -0.1394
     17 C6          6.4318    8.0077   23.3755 C.ar    1  lig         0.1292
     18 C7          9.7862   12.1427   26.0435 C.2     1  lig         0.9321
     19 C8          9.8071   10.4969   24.1740 C.3     1  lig        -0.0452
     20 C9          9.4931   11.9387   24.5748 C.3     1  lig        -0.0740
     21 N1         10.3037   12.8200   23.7352 N.4     1  lig        -0.8252
     22 O1         10.9800   12.1229   26.3352 O.co2   1  lig        -0.7573
     23 O2          8.8864   12.2904   26.9195 O.co2   1  lig        -0.7573
     24 O3          5.4196    7.2996   23.0671 O.3     1  lig        -0.4913
@<TRIPOS>BOND
     1     1    12    1
     2     2    13    1
     3     3    14    1
     4     4    15    1
     5     5    19    1
     6     6    19    1
     7     7    20    1
     8     8    21    1
     9     9    21    1
    10    10    21    1
    11    11    24    1
    12    12    14   ar
    13    12    16   ar
    14    13    15   ar
    15    13    16   ar
    16    14    17   ar
    17    15    17   ar
    18    16    19    1
    19    17    24    1
    20    18    20    1
    21    18    22    1
    22    18    23    1
    23    19    20    1
    24    20    21    1
@<TRIPOS>SUBSTRUCTURE
     1 lig         1 TEMP              0 ****  ****    0 ROOT


########## Name:		ligand
########## HA_RMSDs:		11.3104
########## HA_RMSDh:		11.2647
########## HA_RMSDm:		9.8427
########## Cluster Size:	1
##########    Grid Score:          -17.741041
##########      Grid_vdw:          -15.570624
##########       Grid_es:           -2.170417
##########    Int_energy:            3.244034

@<TRIPOS>MOLECULE
ligand
 24 24 1 0 0
SMALL
No Charge or Current Charge


@<TRIPOS>ATOM
      1 H1         10.2593   11.6779   23.0992 H       1  lig         0.1340
      2 H2         13.2407    9.2023   21.3109 H       1  lig         0.1340
      3 H3         12.0032   12.7699   24.4089 H       1  lig         0.1475
      4 H4         15.0005   10.2668   22.6671 H       1  lig         0.1475
      5 H5          9.9593   10.4756   20.8439 H       1  lig         0.0877
      6 H6         11.0007    9.1397   20.4680 H       1  lig         0.0877
      7 H7          9.1105    8.0742   21.3799 H       1  lig         0.0966
      8 H8          8.0650   10.1463   22.1547 H       1  lig         0.4431
      9 H9          7.9868    9.0218   23.3723 H       1  lig         0.4431
     10 H10         9.1305   10.2310   23.4367 H       1  lig         0.4431
     11 H11        15.3446   11.8189   24.1621 H       1  lig         0.4214
     12 C1         11.2925   11.3551   22.9997 C.ar    1  lig        -0.0999
     13 C2         12.9724    9.9907   22.0102 C.ar    1  lig        -0.0999
     14 C3         12.2732   11.9694   23.7289 C.ar    1  lig        -0.1787
     15 C4         13.9656   10.5770   22.7712 C.ar    1  lig        -0.1787
     16 C5         11.6378   10.3572   22.1408 C.ar    1  lig        -0.1394
     17 C6         13.5842   11.5798   23.6548 C.ar    1  lig         0.1292
     18 C7         10.4229    7.8789   23.0190 C.2     1  lig         0.9321
     19 C8         10.5601    9.6863   21.3105 C.3     1  lig        -0.0452
     20 C9          9.6255    8.7441   22.0701 C.3     1  lig        -0.0740
     21 N1          8.6477    9.5663   22.7817 N.4     1  lig        -0.8252
     22 O1         11.0285    6.9537   22.4824 O.co2   1  lig        -0.7573
     23 O2         10.4493    8.0586   24.2703 O.co2   1  lig        -0.7573
     24 O3         14.4432   12.2101   24.3521 O.3     1  lig        -0.4913
@<TRIPOS>BOND
     1     1    12    1
     2     2    13    1
     3     3    14    1
     4     4    15    1
     5     5    19    1
     6     6    19    1
     7     7    20    1
     8     8    21    1
     9     9    21    1
    10    10    21    1
    11    11    24    1
    12    12    14   ar
    13    12    16   ar
    14    13    15   ar
    15    13    16   ar
    16    14    17   ar
    17    15    17   ar
    18    16    19    1
    19    17    24    1
    20    18    20    1
    21    18    22    1
    22    18    23    1
    23    19    20    1
    24    20    21    1
@<TRIPOS>SUBSTRUCTURE
     1 lig         1 TEMP              0 ****  ****    0 ROOT


########## Name:		ligand
########## HA_RMSDs:		12.0832
########## HA_RMSDh:		12.0287
########## HA_RMSDm:		10.0265
########## Cluster Size:	1
##########    Grid Score:          -17.672333
##########      Grid_vdw:          -18.166693
##########       Grid_es:            0.494360
##########    Int_energy:            1.395725

@<TRIPOS>MOLECULE
ligand
 24 24 1 0 0
SMALL
No Charge or Current Charge


@<TRIPOS>ATOM
      1 H1         11.0692    6.7890   22.8786 H       1  lig         0.1340
      2 H2         10.7857   10.6163   21.0112 H       1  lig         0.1340
      3 H3          9.0826    6.0836   21.6519 H       1  lig         0.1475
      4 H4          8.7500    9.9267   19.8072 H       1  lig         0.1475
      5 H5         11.9813    9.9444   23.5237 H       1  lig         0.0877
      6 H6         12.6908    8.3673   23.3827 H       1  lig         0.0877
      7 H7         13.0024   10.4725   21.1895 H       1  lig         0.0966
      8 H8         13.4293    8.1329   20.6143 H       1  lig         0.4431
      9 H9         14.8761    8.9441   20.6574 H       1  lig         0.4431
     10 H10        14.4374    7.9689   21.9345 H       1  lig         0.4431
     11 H11         7.5704    6.5779   20.4016 H       1  lig         0.4214
     12 C1         10.5673    7.4879   22.2141 C.ar    1  lig        -0.0999
     13 C2         10.3943    9.6121   21.1557 C.ar    1  lig        -0.0999
     14 C3          9.4564    7.0932   21.5209 C.ar    1  lig        -0.1787
     15 C4          9.2482    9.2370   20.4810 C.ar    1  lig        -0.1787
     16 C5         11.0379    8.7531   22.0390 C.ar    1  lig        -0.1394
     17 C6          8.7772    7.9464   20.6921 C.ar    1  lig         0.1292
     18 C7         14.3738   10.5461   22.7897 C.2     1  lig         0.9321
     19 C8         12.2832    9.1920   22.7857 C.3     1  lig        -0.0452
     20 C9         13.4047    9.7737   21.9243 C.3     1  lig        -0.0740
     21 N1         14.0615    8.6611   21.2391 N.4     1  lig        -0.8252
     22 O1         14.0398   11.7056   23.0235 O.co2   1  lig        -0.7573
     23 O2         15.4607   10.0639   23.2198 O.co2   1  lig        -0.7573
     24 O3          7.7604    7.5021   20.0676 O.3     1  lig        -0.4913
@<TRIPOS>BOND
     1     1    12    1
     2     2    13    1
     3     3    14    1
     4     4    15    1
     5     5    19    1
     6     6    19    1
     7     7    20    1
     8     8    21    1
     9     9    21    1
    10    10    21    1
    11    11    24    1
    12    12    14   ar
    13    12    16   ar
    14    13    15   ar
    15    13    16   ar
    16    14    17   ar
    17    15    17   ar
    18    16    19    1
    19    17    24    1
    20    18    20    1
    21    18    22    1
    22    18    23    1
    23    19    20    1
    24    20    21    1
@<TRIPOS>SUBSTRUCTURE
     1 lig         1 TEMP              0 ****  ****    0 ROOT


########## Name:		ligand
########## HA_RMSDs:		13.8699
########## HA_RMSDh:		13.8152
########## HA_RMSDm:		12.2493
########## Cluster Size:	1
##########    Grid Score:          -17.669842
##########      Grid_vdw:          -17.727024
##########       Grid_es:            0.057182
##########    Int_energy:            2.629493

@<TRIPOS>MOLECULE
ligand
 24 24 1 0 0
SMALL
No Charge or Current Charge


@<TRIPOS>ATOM
      1 H1          6.9217    9.5275   24.1124 H       1  lig         0.1340
      2 H2         10.6360   11.2498   22.9068 H       1  lig         0.1340
      3 H3          7.0470    8.0118   22.2056 H       1  lig         0.1475
      4 H4         10.7440    9.7558   20.9509 H       1  lig         0.1475
      5 H5          9.5881   12.0670   24.7833 H       1  lig         0.0877
      6 H6          7.8556   12.1302   24.7141 H       1  lig         0.0877
      7 H7          8.1414    9.7764   26.0977 H       1  lig         0.0966
      8 H8          6.8554   11.7623   26.7214 H       1  lig         0.4431
      9 H9          7.7452   11.2699   28.0323 H       1  lig         0.4431
     10 H10         8.2580   12.5708   27.1273 H       1  lig         0.4431
     11 H11         8.0442    7.4053   20.5580 H       1  lig         0.4214
     12 C1          7.7608    9.5922   23.4244 C.ar    1  lig        -0.0999
     13 C2          9.8362   10.5326   22.7379 C.ar    1  lig        -0.0999
     14 C3          7.8364    8.7398   22.3574 C.ar    1  lig        -0.1787
     15 C4          9.9026    9.7036   21.6344 C.ar    1  lig        -0.1787
     16 C5          8.7588   10.4979   23.6157 C.ar    1  lig        -0.1394
     17 C6          8.8614    8.8013   21.4509 C.ar    1  lig         0.1292
     18 C7         10.0071   10.5318   26.7266 C.2     1  lig         0.9321
     19 C8          8.6954   11.4313   24.8097 C.3     1  lig        -0.0452
     20 C9          8.6161   10.7553   26.1789 C.3     1  lig        -0.0740
     21 N1          7.8232   11.6171   27.0548 N.4     1  lig        -0.8252
     22 O1         10.8167   10.1011   25.9083 O.co2   1  lig        -0.7573
     23 O2         10.3212   10.7353   27.9343 O.co2   1  lig        -0.7573
     24 O3          8.8721    7.9638   20.4918 O.3     1  lig        -0.4913
@<TRIPOS>BOND
     1     1    12    1
     2     2    13    1
     3     3    14    1
     4     4    15    1
     5     5    19    1
     6     6    19    1
     7     7    20    1
     8     8    21    1
     9     9    21    1
    10    10    21    1
    11    11    24    1
    12    12    14   ar
    13    12    16   ar
    14    13    15   ar
    15    13    16   ar
    16    14    17   ar
    17    15    17   ar
    18    16    19    1
    19    17    24    1
    20    18    20    1
    21    18    22    1
    22    18    23    1
    23    19    20    1
    24    20    21    1
@<TRIPOS>SUBSTRUCTURE
     1 lig         1 TEMP              0 ****  ****    0 ROOT


########## Name:		ligand
########## HA_RMSDs:		15.6162
########## HA_RMSDh:		15.6118
########## HA_RMSDm:		13.2081
########## Cluster Size:	1
##########    Grid Score:          -17.656643
##########      Grid_vdw:          -17.152550
##########       Grid_es:           -0.504094
##########    Int_energy:            1.545831

@<TRIPOS>MOLECULE
ligand
 24 24 1 0 0
SMALL
No Charge or Current Charge


@<TRIPOS>ATOM
      1 H1          7.2092    8.7876   23.4446 H       1  lig         0.1340
      2 H2          7.7098    6.5920   19.8190 H       1  lig         0.1340
      3 H3          9.2629   10.0060   22.9479 H       1  lig         0.1475
      4 H4          9.8112    7.7838   19.3361 H       1  lig         0.1475
      5 H5          5.4995    7.4272   22.7156 H       1  lig         0.0877
      6 H6          5.4056    6.8333   21.0880 H       1  lig         0.0877
      7 H7          7.1574    5.3151   23.0375 H       1  lig         0.0966
      8 H8          7.0181    4.7204   20.6681 H       1  lig         0.4431
      9 H9          6.3024    3.5198   21.5623 H       1  lig         0.4431
     10 H10         5.3541    4.6329   20.7647 H       1  lig         0.4431
     11 H11        10.6912   10.4558   21.5436 H       1  lig         0.4214
     12 C1          7.7727    8.5537   22.5449 C.ar    1  lig        -0.0999
     13 C2          8.0678    7.3468   20.5154 C.ar    1  lig        -0.0999
     14 C3          8.9217    9.2391   22.2611 C.ar    1  lig        -0.1787
     15 C4          9.2509    8.0050   20.2390 C.ar    1  lig        -0.1787
     16 C5          7.3437    7.5986   21.6750 C.ar    1  lig        -0.1394
     17 C6          9.6772    8.9616   21.1528 C.ar    1  lig         0.1292
     18 C7          5.0997    5.0760   23.4324 C.2     1  lig         0.9321
     19 C8          6.0579    6.8498   21.9695 C.3     1  lig        -0.0452
     20 C9          6.2241    5.4188   22.4821 C.3     1  lig        -0.0740
     21 N1          6.2394    4.5297   21.3211 N.4     1  lig        -0.8252
     22 O1          3.9770    5.1181   22.9340 O.co2   1  lig        -0.7573
     23 O2          5.2794    4.7980   24.6527 O.co2   1  lig        -0.7573
     24 O3         10.7263    9.6531   20.9468 O.3     1  lig        -0.4913
@<TRIPOS>BOND
     1     1    12    1
     2     2    13    1
     3     3    14    1
     4     4    15    1
     5     5    19    1
     6     6    19    1
     7     7    20    1
     8     8    21    1
     9     9    21    1
    10    10    21    1
    11    11    24    1
    12    12    14   ar
    13    12    16   ar
    14    13    15   ar
    15    13    16   ar
    16    14    17   ar
    17    15    17   ar
    18    16    19    1
    19    17    24    1
    20    18    20    1
    21    18    22    1
    22    18    23    1
    23    19    20    1
    24    20    21    1
@<TRIPOS>SUBSTRUCTURE
     1 lig         1 TEMP              0 ****  ****    0 ROOT


########## Name:		ligand
########## HA_RMSDs:		13.6836
########## HA_RMSDh:		13.6162
########## HA_RMSDm:		11.5059
########## Cluster Size:	1
##########    Grid Score:          -17.620350
##########      Grid_vdw:          -16.447330
##########       Grid_es:           -1.173019
##########    Int_energy:            2.220250

@<TRIPOS>MOLECULE
ligand
 24 24 1 0 0
SMALL
No Charge or Current Charge


@<TRIPOS>ATOM
      1 H1          9.3358   11.3737   22.8415 H       1  lig         0.1340
      2 H2          7.8638   10.1562   26.6581 H       1  lig         0.1340
      3 H3         10.8863   12.8864   23.9623 H       1  lig         0.1475
      4 H4          9.3924   11.7185   27.7948 H       1  lig         0.1475
      5 H5          6.8494    9.3373   24.7479 H       1  lig         0.0877
      6 H6          6.8852   10.2689   23.2845 H       1  lig         0.0877
      7 H7          9.0778    8.2230   23.7824 H       1  lig         0.0966
      8 H8          9.2184    9.7946   21.9124 H       1  lig         0.4431
      9 H9          8.9519    8.2717   21.3102 H       1  lig         0.4431
     10 H10         7.6914    9.3568   21.4003 H       1  lig         0.4431
     11 H11        10.9433   13.2121   27.4293 H       1  lig         0.4214
     12 C1          9.3336   11.4442   23.9263 C.ar    1  lig        -0.0999
     13 C2          8.5332   10.7748   26.0650 C.ar    1  lig        -0.0999
     14 C3         10.2057   12.2876   24.5576 C.ar    1  lig        -0.1787
     15 C4          9.3821   11.6527   26.7115 C.ar    1  lig        -0.1787
     16 C5          8.4879   10.6878   24.6783 C.ar    1  lig        -0.1394
     17 C6         10.2216   12.4278   25.9201 C.ar    1  lig         0.1292
     18 C7          7.2290    7.3854   23.2106 C.2     1  lig         0.9321
     19 C8          7.5335    9.7322   23.9878 C.3     1  lig        -0.0452
     20 C9          8.1827    8.5571   23.2558 C.3     1  lig        -0.0740
     21 N1          8.5414    9.0132   21.9134 N.4     1  lig        -0.8252
     22 O1          7.2567    6.6637   24.2051 O.co2   1  lig        -0.7573
     23 O2          6.4797    7.1346   22.2234 O.co2   1  lig        -0.7573
     24 O3         11.0733   13.2208   26.4369 O.3     1  lig        -0.4913
@<TRIPOS>BOND
     1     1    12    1
     2     2    13    1
     3     3    14    1
     4     4    15    1
     5     5    19    1
     6     6    19    1
     7     7    20    1
     8     8    21    1
     9     9    21    1
    10    10    21    1
    11    11    24    1
    12    12    14   ar
    13    12    16   ar
    14    13    15   ar
    15    13    16   ar
    16    14    17   ar
    17    15    17   ar
    18    16    19    1
    19    17    24    1
    20    18    20    1
    21    18    22    1
    22    18    23    1
    23    19    20    1
    24    20    21    1
@<TRIPOS>SUBSTRUCTURE
     1 lig         1 TEMP              0 ****  ****    0 ROOT


########## Name:		ligand
########## HA_RMSDs:		10.1423
########## HA_RMSDh:		10.0655
########## HA_RMSDm:		8.3611
########## Cluster Size:	1
##########    Grid Score:          -17.616703
##########      Grid_vdw:          -16.227661
##########       Grid_es:           -1.389041
##########    Int_energy:            3.621782

@<TRIPOS>MOLECULE
ligand
 24 24 1 0 0
SMALL
No Charge or Current Charge


@<TRIPOS>ATOM
      1 H1         13.8184   12.2653   24.1772 H       1  lig         0.1340
      2 H2         14.6685    8.3412   22.7301 H       1  lig         0.1340
      3 H3         11.7989   12.2928   22.8099 H       1  lig         0.1475
      4 H4         12.6569    8.3821   21.3086 H       1  lig         0.1475
      5 H5         15.4212   10.8599   25.2910 H       1  lig         0.0877
      6 H6         15.8297    9.2650   24.7433 H       1  lig         0.0877
      7 H7         17.4642   11.4359   24.4432 H       1  lig         0.0966
      8 H8         15.9065   12.4605   22.8588 H       1  lig         0.4431
      9 H9         17.2923   12.0410   22.0486 H       1  lig         0.4431
     10 H10        15.9335   11.0877   21.9098 H       1  lig         0.4431
     11 H11        11.2651   10.3877   20.3198 H       1  lig         0.4214
     12 C1         13.5790   11.4111   23.5489 C.ar    1  lig        -0.0999
     13 C2         14.0294    9.2210   22.7346 C.ar    1  lig        -0.0999
     14 C3         12.4443   11.4217   22.7853 C.ar    1  lig        -0.1787
     15 C4         12.9070    9.2370   21.9288 C.ar    1  lig        -0.1787
     16 C5         14.3809   10.3116   23.5217 C.ar    1  lig        -0.1394
     17 C6         12.1155   10.3791   21.9600 C.ar    1  lig         0.1292
     18 C7         17.7965    9.6903   23.3078 C.2     1  lig         0.9321
     19 C8         15.6290   10.2813   24.3833 C.3     1  lig        -0.0452
     20 C9         16.8994   10.8301   23.7331 C.3     1  lig        -0.0740
     21 N1         16.4958   11.6533   22.5938 N.4     1  lig        -0.8252
     22 O1         17.2857    8.9066   22.5105 O.co2   1  lig        -0.7573
     23 O2         18.9687    9.5233   23.7515 O.co2   1  lig        -0.7573
     24 O3         11.0345   10.4543   21.2914 O.3     1  lig        -0.4913
@<TRIPOS>BOND
     1     1    12    1
     2     2    13    1
     3     3    14    1
     4     4    15    1
     5     5    19    1
     6     6    19    1
     7     7    20    1
     8     8    21    1
     9     9    21    1
    10    10    21    1
    11    11    24    1
    12    12    14   ar
    13    12    16   ar
    14    13    15   ar
    15    13    16   ar
    16    14    17   ar
    17    15    17   ar
    18    16    19    1
    19    17    24    1
    20    18    20    1
    21    18    22    1
    22    18    23    1
    23    19    20    1
    24    20    21    1
@<TRIPOS>SUBSTRUCTURE
     1 lig         1 TEMP              0 ****  ****    0 ROOT


########## Name:		ligand
########## HA_RMSDs:		16.3764
########## HA_RMSDh:		16.3692
########## HA_RMSDm:		14.6927
########## Cluster Size:	1
##########    Grid Score:          -17.616125
##########      Grid_vdw:          -14.590454
##########       Grid_es:           -3.025670
##########    Int_energy:            3.201027

@<TRIPOS>MOLECULE
ligand
 24 24 1 0 0
SMALL
No Charge or Current Charge


@<TRIPOS>ATOM
      1 H1          8.1924    6.5845   25.4496 H       1  lig         0.1340
      2 H2          5.0865    7.0176   22.5545 H       1  lig         0.1340
      3 H3          6.5463    6.9348   27.2149 H       1  lig         0.1475
      4 H4          3.4275    7.4217   24.3304 H       1  lig         0.1475
      5 H5          8.6522    6.1186   23.2476 H       1  lig         0.0877
      6 H6          7.4032    5.8093   22.0836 H       1  lig         0.0877
      7 H7          9.2587    7.9865   22.1184 H       1  lig         0.0966
      8 H8          7.6212    9.1330   23.5294 H       1  lig         0.4431
      9 H9          7.6199    9.8403   22.0285 H       1  lig         0.4431
     10 H10         6.4042    8.7797   22.4431 H       1  lig         0.4431
     11 H11         4.2373    8.3002   27.2452 H       1  lig         0.4214
     12 C1          7.1536    6.7730   25.1907 C.ar    1  lig        -0.0999
     13 C2          5.4049    7.0105   23.5943 C.ar    1  lig        -0.0999
     14 C3          6.2274    6.9644   26.1787 C.ar    1  lig        -0.1787
     15 C4          4.4682    7.2449   24.5828 C.ar    1  lig        -0.1787
     16 C5          6.7466    6.8018   23.8921 C.ar    1  lig        -0.1394
     17 C6          4.9129    7.2296   25.8995 C.ar    1  lig         0.1292
     18 C7          7.9276    7.5990   20.5293 C.2     1  lig         0.9321
     19 C8          7.7625    6.5671   22.7903 C.3     1  lig        -0.0452
     20 C9          8.1887    7.8070   22.0035 C.3     1  lig        -0.0740
     21 N1          7.4380    8.9467   22.5291 N.4     1  lig        -0.8252
     22 O1          6.9230    8.1639   20.1024 O.co2   1  lig        -0.7573
     23 O2          8.6556    6.8786   19.7878 O.co2   1  lig        -0.7573
     24 O3          4.1060    7.3805   26.8729 O.3     1  lig        -0.4913
@<TRIPOS>BOND
     1     1    12    1
     2     2    13    1
     3     3    14    1
     4     4    15    1
     5     5    19    1
     6     6    19    1
     7     7    20    1
     8     8    21    1
     9     9    21    1
    10    10    21    1
    11    11    24    1
    12    12    14   ar
    13    12    16   ar
    14    13    15   ar
    15    13    16   ar
    16    14    17   ar
    17    15    17   ar
    18    16    19    1
    19    17    24    1
    20    18    20    1
    21    18    22    1
    22    18    23    1
    23    19    20    1
    24    20    21    1
@<TRIPOS>SUBSTRUCTURE
     1 lig         1 TEMP              0 ****  ****    0 ROOT


########## Name:		ligand
########## HA_RMSDs:		14.5344
########## HA_RMSDh:		14.4580
########## HA_RMSDm:		12.7786
########## Cluster Size:	1
##########    Grid Score:          -17.581524
##########      Grid_vdw:          -16.426424
##########       Grid_es:           -1.155101
##########    Int_energy:            3.347929

@<TRIPOS>MOLECULE
ligand
 24 24 1 0 0
SMALL
No Charge or Current Charge


@<TRIPOS>ATOM
      1 H1         22.2134    4.6756   12.6757 H       1  lig         0.1340
      2 H2         24.8765    7.0519   15.0159 H       1  lig         0.1340
      3 H3         21.9575    6.5468   11.1325 H       1  lig         0.1475
      4 H4         24.5836    8.9626   13.4886 H       1  lig         0.1475
      5 H5         24.2323    4.9636   15.8008 H       1  lig         0.0877
      6 H6         22.7486    4.2340   15.2746 H       1  lig         0.0877
      7 H7         25.0806    2.9173   15.1519 H       1  lig         0.0966
      8 H8         26.0888    4.5812   13.6681 H       1  lig         0.4431
      9 H9         25.9522    3.1465   12.8459 H       1  lig         0.4431
     10 H10        24.8592    4.3703   12.5592 H       1  lig         0.4431
     11 H11        23.3294    8.4359   10.4648 H       1  lig         0.4214
     12 C1         22.7330    5.6107   12.8688 C.ar    1  lig        -0.0999
     13 C2         24.2208    6.9511   14.1543 C.ar    1  lig        -0.0999
     14 C3         22.5956    6.6598   12.0021 C.ar    1  lig        -0.1787
     15 C4         24.0578    8.0306   13.3072 C.ar    1  lig        -0.1787
     16 C5         23.5424    5.7544   13.9537 C.ar    1  lig        -0.1394
     17 C6         23.2108    7.8644   12.2178 C.ar    1  lig         0.1292
     18 C7         23.5460    2.3544   13.8196 C.2     1  lig         0.9321
     19 C8         23.7195    4.5883   14.9075 C.3     1  lig        -0.0452
     20 C9         24.5012    3.3938   14.3598 C.3     1  lig        -0.0740
     21 N1         25.4020    3.8909   13.3205 N.4     1  lig        -0.8252
     22 O1         23.1082    1.5740   14.6622 O.co2   1  lig        -0.7573
     23 O2         23.2368    2.2607   12.5972 O.co2   1  lig        -0.7573
     24 O3         23.0485    8.7895   11.3580 O.3     1  lig        -0.4913
@<TRIPOS>BOND
     1     1    12    1
     2     2    13    1
     3     3    14    1
     4     4    15    1
     5     5    19    1
     6     6    19    1
     7     7    20    1
     8     8    21    1
     9     9    21    1
    10    10    21    1
    11    11    24    1
    12    12    14   ar
    13    12    16   ar
    14    13    15   ar
    15    13    16   ar
    16    14    17   ar
    17    15    17   ar
    18    16    19    1
    19    17    24    1
    20    18    20    1
    21    18    22    1
    22    18    23    1
    23    19    20    1
    24    20    21    1
@<TRIPOS>SUBSTRUCTURE
     1 lig         1 TEMP              0 ****  ****    0 ROOT


########## Name:		ligand
########## HA_RMSDs:		13.1300
########## HA_RMSDh:		13.1126
########## HA_RMSDm:		11.6864
########## Cluster Size:	1
##########    Grid Score:          -17.559326
##########      Grid_vdw:          -15.887388
##########       Grid_es:           -1.671939
##########    Int_energy:            3.373109

@<TRIPOS>MOLECULE
ligand
 24 24 1 0 0
SMALL
No Charge or Current Charge


@<TRIPOS>ATOM
      1 H1          7.1964   10.3522   24.4182 H       1  lig         0.1340
      2 H2         10.1614    9.3043   21.5327 H       1  lig         0.1340
      3 H3          8.5732   12.2500   25.0903 H       1  lig         0.1475
      4 H4         11.5799   11.1899   22.2408 H       1  lig         0.1475
      5 H5          6.6971    8.7898   22.7096 H       1  lig         0.0877
      6 H6          7.7956    8.3853   21.4288 H       1  lig         0.0877
      7 H7          7.4336    6.3938   22.7699 H       1  lig         0.0966
      8 H8          6.7505    7.5668   24.8056 H       1  lig         0.4431
      9 H9          7.9572    6.4940   25.1877 H       1  lig         0.4431
     10 H10         8.3094    8.1153   25.0396 H       1  lig         0.4431
     11 H11        11.6068   12.9488   23.5385 H       1  lig         0.4214
     12 C1          8.1569   10.5206   23.9377 C.ar    1  lig        -0.0999
     13 C2          9.8197    9.9592   22.3307 C.ar    1  lig        -0.0999
     14 C3          8.9285   11.5872   24.3089 C.ar    1  lig        -0.1787
     15 C4         10.6254   11.0101   22.7253 C.ar    1  lig        -0.1787
     16 C5          8.6030    9.6972   22.9499 C.ar    1  lig        -0.1394
     17 C6         10.1559   11.8244   23.7492 C.ar    1  lig         0.1292
     18 C7          9.4910    6.8104   22.9711 C.2     1  lig         0.9321
     19 C8          7.7432    8.5255   22.5153 C.3     1  lig        -0.0452
     20 C9          8.0453    7.1902   23.1962 C.3     1  lig        -0.0740
     21 N1          7.7413    7.3379   24.6190 N.4     1  lig        -0.8252
     22 O1         10.2526    7.1321   23.8805 O.co2   1  lig        -0.7573
     23 O2          9.9056    6.2370   21.9233 O.co2   1  lig        -0.7573
     24 O3         10.8096   12.8467   24.1349 O.3     1  lig        -0.4913
@<TRIPOS>BOND
     1     1    12    1
     2     2    13    1
     3     3    14    1
     4     4    15    1
     5     5    19    1
     6     6    19    1
     7     7    20    1
     8     8    21    1
     9     9    21    1
    10    10    21    1
    11    11    24    1
    12    12    14   ar
    13    12    16   ar
    14    13    15   ar
    15    13    16   ar
    16    14    17   ar
    17    15    17   ar
    18    16    19    1
    19    17    24    1
    20    18    20    1
    21    18    22    1
    22    18    23    1
    23    19    20    1
    24    20    21    1
@<TRIPOS>SUBSTRUCTURE
     1 lig         1 TEMP              0 ****  ****    0 ROOT


########## Name:		ligand
########## HA_RMSDs:		14.6975
########## HA_RMSDh:		14.6516
########## HA_RMSDm:		13.0045
########## Cluster Size:	1
##########    Grid Score:          -17.558157
##########      Grid_vdw:          -16.423971
##########       Grid_es:           -1.134185
##########    Int_energy:            1.644383

@<TRIPOS>MOLECULE
ligand
 24 24 1 0 0
SMALL
No Charge or Current Charge


@<TRIPOS>ATOM
      1 H1          6.2063    8.5048   24.1734 H       1  lig         0.1340
      2 H2          9.1734    9.6146   21.3134 H       1  lig         0.1340
      3 H3          5.5038    6.7002   22.6906 H       1  lig         0.1475
      4 H4          8.4362    7.8253   19.7890 H       1  lig         0.1475
      5 H5          8.9798   10.8419   23.2490 H       1  lig         0.0877
      6 H6          7.3773   11.0446   23.8827 H       1  lig         0.0877
      7 H7          8.2296    8.8939   25.4033 H       1  lig         0.0966
      8 H8          7.2178   10.9921   26.1522 H       1  lig         0.4431
      9 H9          8.5686   10.6945   27.0685 H       1  lig         0.4431
     10 H10         8.6357   11.8144   25.8372 H       1  lig         0.4431
     11 H11         5.7362    5.7348   20.9327 H       1  lig         0.4214
     12 C1          6.6987    8.3709   23.2136 C.ar    1  lig        -0.0999
     13 C2          8.3507    8.9674   21.6081 C.ar    1  lig        -0.0999
     14 C3          6.3104    7.3564   22.3825 C.ar    1  lig        -0.1787
     15 C4          7.9402    7.9709   20.7434 C.ar    1  lig        -0.1787
     16 C5          7.7178    9.1859   22.8263 C.ar    1  lig        -0.1394
     17 C6          6.8848    7.1650   21.1538 C.ar    1  lig         0.1292
     18 C7         10.1625    9.6867   25.1167 C.2     1  lig         0.9321
     19 C8          8.1709   10.2990   23.7519 C.3     1  lig        -0.0452
     20 C9          8.6609    9.8585   25.1317 C.3     1  lig        -0.0740
     21 N1          8.2435   10.8748   26.0969 N.4     1  lig        -0.8252
     22 O1         10.5659    8.7679   24.4070 O.co2   1  lig        -0.7573
     23 O2         10.9523   10.4008   25.7987 O.co2   1  lig        -0.7573
     24 O3          6.4812    6.1890   20.4425 O.3     1  lig        -0.4913
@<TRIPOS>BOND
     1     1    12    1
     2     2    13    1
     3     3    14    1
     4     4    15    1
     5     5    19    1
     6     6    19    1
     7     7    20    1
     8     8    21    1
     9     9    21    1
    10    10    21    1
    11    11    24    1
    12    12    14   ar
    13    12    16   ar
    14    13    15   ar
    15    13    16   ar
    16    14    17   ar
    17    15    17   ar
    18    16    19    1
    19    17    24    1
    20    18    20    1
    21    18    22    1
    22    18    23    1
    23    19    20    1
    24    20    21    1
@<TRIPOS>SUBSTRUCTURE
     1 lig         1 TEMP              0 ****  ****    0 ROOT


########## Name:		ligand
########## HA_RMSDs:		12.3725
########## HA_RMSDh:		12.2744
########## HA_RMSDm:		10.2010
########## Cluster Size:	1
##########    Grid Score:          -17.556959
##########      Grid_vdw:          -15.325884
##########       Grid_es:           -2.231076
##########    Int_energy:            2.368053

@<TRIPOS>MOLECULE
ligand
 24 24 1 0 0
SMALL
No Charge or Current Charge


@<TRIPOS>ATOM
      1 H1          9.4418   10.8149   24.7784 H       1  lig         0.1340
      2 H2         13.6527   11.2522   24.2378 H       1  lig         0.1340
      3 H3          9.2242   10.3212   22.3998 H       1  lig         0.1475
      4 H4         13.4339   10.8035   21.8254 H       1  lig         0.1475
      5 H5         10.8711   10.8826   26.6523 H       1  lig         0.0877
      6 H6         12.6024   10.9013   26.5385 H       1  lig         0.0877
      7 H7         11.2762   13.4655   25.7305 H       1  lig         0.0966
      8 H8         13.6955   13.1428   25.9024 H       1  lig         0.4431
      9 H9         13.2192   14.2321   27.0598 H       1  lig         0.4431
     10 H10        13.5403   12.6556   27.4913 H       1  lig         0.4431
     11 H11        11.7979   10.7410   20.1989 H       1  lig         0.4214
     12 C1         10.3229   10.8219   24.1418 C.ar    1  lig        -0.0999
     13 C2         12.6691   11.0536   23.8188 C.ar    1  lig        -0.0999
     14 C3         10.2046   10.5400   22.8087 C.ar    1  lig        -0.1787
     15 C4         12.5559   10.8096   22.4634 C.ar    1  lig        -0.1787
     16 C5         11.5568   11.0866   24.6519 C.ar    1  lig        -0.1394
     17 C6         11.2827   10.5615   21.9641 C.ar    1  lig         0.1292
     18 C7         10.8695   13.0693   27.7614 C.2     1  lig         0.9321
     19 C8         11.7009   11.3770   26.1338 C.3     1  lig        -0.0452
     20 C9         11.7106   12.8554   26.5239 C.3     1  lig        -0.0740
     21 N1         13.1021   13.2483   26.7425 N.4     1  lig        -0.8252
     22 O1         11.0257   12.2234   28.6393 O.co2   1  lig        -0.7573
     23 O2         10.0430   14.0180   27.8867 O.co2   1  lig        -0.7573
     24 O3         11.0968   10.2725   20.7380 O.3     1  lig        -0.4913
@<TRIPOS>BOND
     1     1    12    1
     2     2    13    1
     3     3    14    1
     4     4    15    1
     5     5    19    1
     6     6    19    1
     7     7    20    1
     8     8    21    1
     9     9    21    1
    10    10    21    1
    11    11    24    1
    12    12    14   ar
    13    12    16   ar
    14    13    15   ar
    15    13    16   ar
    16    14    17   ar
    17    15    17   ar
    18    16    19    1
    19    17    24    1
    20    18    20    1
    21    18    22    1
    22    18    23    1
    23    19    20    1
    24    20    21    1
@<TRIPOS>SUBSTRUCTURE
     1 lig         1 TEMP              0 ****  ****    0 ROOT


########## Name:		ligand
########## HA_RMSDs:		11.9733
########## HA_RMSDh:		11.9732
########## HA_RMSDm:		9.8783
########## Cluster Size:	1
##########    Grid Score:          -17.549034
##########      Grid_vdw:          -17.402739
##########       Grid_es:           -0.146297
##########    Int_energy:            2.133141

@<TRIPOS>MOLECULE
ligand
 24 24 1 0 0
SMALL
No Charge or Current Charge


@<TRIPOS>ATOM
      1 H1         11.2809   12.9196   25.5053 H       1  lig         0.1340
      2 H2          9.0934    9.8740   23.4672 H       1  lig         0.1340
      3 H3          9.5980   12.8966   27.2705 H       1  lig         0.1475
      4 H4          7.3639    9.8809   25.2216 H       1  lig         0.1475
      5 H5         10.8121   11.4206   22.3088 H       1  lig         0.0877
      6 H6         11.9091   12.3455   23.2845 H       1  lig         0.0877
      7 H7         11.7697    9.2880   23.2338 H       1  lig         0.0966
      8 H8         12.4595   10.2233   25.3870 H       1  lig         0.4431
      9 H9         13.7873    9.5636   24.6421 H       1  lig         0.4431
     10 H10        13.5667   11.2145   24.6271 H       1  lig         0.4431
     11 H11         6.8407   10.7736   27.1428 H       1  lig         0.4214
     12 C1         10.4250   12.2540   25.4278 C.ar    1  lig        -0.0999
     13 C2          9.1931   10.5508   24.3125 C.ar    1  lig        -0.0999
     14 C3          9.4826   12.2352   26.4189 C.ar    1  lig        -0.1787
     15 C4          8.2144   10.5520   25.2880 C.ar    1  lig        -0.1787
     16 C5         10.2805   11.4151   24.3657 C.ar    1  lig        -0.1394
     17 C6          8.3754   11.4316   26.3520 C.ar    1  lig         0.1292
     18 C7         13.2240   10.3019   22.0920 C.2     1  lig         0.9321
     19 C8         11.3330   11.4122   23.2734 C.3     1  lig        -0.0452
     20 C9         12.3084   10.2348   23.2928 C.3     1  lig        -0.0740
     21 N1         13.0576   10.2989   24.5470 N.4     1  lig        -0.8252
     22 O1         13.7542   11.3961   21.9126 O.co2   1  lig        -0.7573
     23 O2         13.4147    9.3298   21.3062 O.co2   1  lig        -0.7573
     24 O3          7.5496   11.4571   27.3209 O.3     1  lig        -0.4913
@<TRIPOS>BOND
     1     1    12    1
     2     2    13    1
     3     3    14    1
     4     4    15    1
     5     5    19    1
     6     6    19    1
     7     7    20    1
     8     8    21    1
     9     9    21    1
    10    10    21    1
    11    11    24    1
    12    12    14   ar
    13    12    16   ar
    14    13    15   ar
    15    13    16   ar
    16    14    17   ar
    17    15    17   ar
    18    16    19    1
    19    17    24    1
    20    18    20    1
    21    18    22    1
    22    18    23    1
    23    19    20    1
    24    20    21    1
@<TRIPOS>SUBSTRUCTURE
     1 lig         1 TEMP              0 ****  ****    0 ROOT


########## Name:		ligand
########## HA_RMSDs:		14.3651
########## HA_RMSDh:		14.3079
########## HA_RMSDm:		12.3201
########## Cluster Size:	1
##########    Grid Score:          -17.528059
##########      Grid_vdw:          -16.833843
##########       Grid_es:           -0.694215
##########    Int_energy:            3.341781

@<TRIPOS>MOLECULE
ligand
 24 24 1 0 0
SMALL
No Charge or Current Charge


@<TRIPOS>ATOM
      1 H1          9.8967    5.9418   21.6065 H       1  lig         0.1340
      2 H2          7.5940    9.1060   23.3097 H       1  lig         0.1340
      3 H3          7.8241    4.8212   20.9763 H       1  lig         0.1475
      4 H4          5.4967    7.9557   22.7205 H       1  lig         0.1475
      5 H5         10.0575    8.6373   23.9315 H       1  lig         0.0877
      6 H6         11.0016    7.5888   22.9215 H       1  lig         0.0877
      7 H7         11.6269    9.6266   22.0167 H       1  lig         0.0966
      8 H8         10.1835   10.8879   23.5374 H       1  lig         0.4431
      9 H9         10.0517   11.5368   22.0160 H       1  lig         0.4431
     10 H10         8.8498   10.5401   22.5961 H       1  lig         0.4431
     11 H11         5.7676    5.0602   20.6826 H       1  lig         0.4214
     12 C1          8.9401    6.3905   21.8620 C.ar    1  lig        -0.0999
     13 C2          7.6364    8.1470   22.7987 C.ar    1  lig        -0.0999
     14 C3          7.7763    5.7669   21.5050 C.ar    1  lig        -0.1787
     15 C4          6.4546    7.5065   22.4784 C.ar    1  lig        -0.1787
     16 C5          8.8748    7.5818   22.5171 C.ar    1  lig        -0.1394
     17 C6          6.5488    6.2821   21.8273 C.ar    1  lig         0.1292
     18 C7         10.1268    9.2298   20.5887 C.2     1  lig         0.9321
     19 C8         10.1604    8.2921   22.8961 C.3     1  lig        -0.0452
     20 C9         10.5453    9.4838   22.0187 C.3     1  lig        -0.0740
     21 N1          9.8920   10.6707   22.5695 N.4     1  lig        -0.8252
     22 O1         10.9840    8.6906   19.8922 O.co2   1  lig        -0.7573
     23 O2          9.0015    9.5679   20.1216 O.co2   1  lig        -0.7573
     24 O3          5.5094    5.6527   21.4468 O.3     1  lig        -0.4913
@<TRIPOS>BOND
     1     1    12    1
     2     2    13    1
     3     3    14    1
     4     4    15    1
     5     5    19    1
     6     6    19    1
     7     7    20    1
     8     8    21    1
     9     9    21    1
    10    10    21    1
    11    11    24    1
    12    12    14   ar
    13    12    16   ar
    14    13    15   ar
    15    13    16   ar
    16    14    17   ar
    17    15    17   ar
    18    16    19    1
    19    17    24    1
    20    18    20    1
    21    18    22    1
    22    18    23    1
    23    19    20    1
    24    20    21    1
@<TRIPOS>SUBSTRUCTURE
     1 lig         1 TEMP              0 ****  ****    0 ROOT


########## Name:		ligand
########## HA_RMSDs:		9.8761
########## HA_RMSDh:		9.8759
########## HA_RMSDm:		8.2535
########## Cluster Size:	1
##########    Grid Score:          -17.496468
##########      Grid_vdw:          -15.906132
##########       Grid_es:           -1.590336
##########    Int_energy:            1.132928

@<TRIPOS>MOLECULE
ligand
 24 24 1 0 0
SMALL
No Charge or Current Charge


@<TRIPOS>ATOM
      1 H1         17.5570   16.3861   26.9117 H       1  lig         0.1340
      2 H2         14.3200   13.7247   27.7207 H       1  lig         0.1340
      3 H3         16.1676   18.2457   27.6603 H       1  lig         0.1475
      4 H4         12.8945   15.6043   28.4309 H       1  lig         0.1475
      5 H5         17.7977   13.7935   27.4046 H       1  lig         0.0877
      6 H6         16.4055   12.8232   27.0426 H       1  lig         0.0877
      7 H7         17.7468   14.7148   25.0437 H       1  lig         0.0966
      8 H8         15.3571   14.3387   24.6767 H       1  lig         0.4431
      9 H9         16.2109   13.5174   23.5150 H       1  lig         0.4431
     10 H10        15.5731   12.6891   24.8118 H       1  lig         0.4431
     11 H11        12.8355   17.8128   28.5242 H       1  lig         0.4214
     12 C1         16.5359   16.2020   27.2359 C.ar    1  lig        -0.0999
     13 C2         14.7204   14.7356   27.7011 C.ar    1  lig        -0.0999
     14 C3         15.7564   17.2422   27.6613 C.ar    1  lig        -0.1787
     15 C4         13.9109   15.7839   28.0949 C.ar    1  lig        -0.1787
     16 C5         16.0181   14.9432   27.2479 C.ar    1  lig        -0.1394
     17 C6         14.4569   17.0614   28.0548 C.ar    1  lig         0.1292
     18 C7         18.2779   12.6740   25.0582 C.2     1  lig         0.9321
     19 C8         16.8831   13.7803   26.8003 C.3     1  lig        -0.0452
     20 C9         17.2732   13.7721   25.3219 C.3     1  lig        -0.0740
     21 N1         16.0513   13.5846   24.5407 N.4     1  lig        -0.8252
     22 O1         19.4505   13.0424   25.0560 O.co2   1  lig        -0.7573
     23 O2         17.9536   11.4745   24.8244 O.co2   1  lig        -0.7573
     24 O3         13.7986   18.0759   28.4534 O.3     1  lig        -0.4913
@<TRIPOS>BOND
     1     1    12    1
     2     2    13    1
     3     3    14    1
     4     4    15    1
     5     5    19    1
     6     6    19    1
     7     7    20    1
     8     8    21    1
     9     9    21    1
    10    10    21    1
    11    11    24    1
    12    12    14   ar
    13    12    16   ar
    14    13    15   ar
    15    13    16   ar
    16    14    17   ar
    17    15    17   ar
    18    16    19    1
    19    17    24    1
    20    18    20    1
    21    18    22    1
    22    18    23    1
    23    19    20    1
    24    20    21    1
@<TRIPOS>SUBSTRUCTURE
     1 lig         1 TEMP              0 ****  ****    0 ROOT


########## Name:		ligand
########## HA_RMSDs:		13.2763
########## HA_RMSDh:		13.2532
########## HA_RMSDm:		11.4834
########## Cluster Size:	1
##########    Grid Score:          -17.487455
##########      Grid_vdw:          -16.579229
##########       Grid_es:           -0.908226
##########    Int_energy:            2.497624

@<TRIPOS>MOLECULE
ligand
 24 24 1 0 0
SMALL
No Charge or Current Charge


@<TRIPOS>ATOM
      1 H1         11.1103    8.1052   22.1175 H       1  lig         0.1340
      2 H2          7.7599   10.0713   23.8853 H       1  lig         0.1340
      3 H3         12.4077   10.1530   22.3857 H       1  lig         0.1475
      4 H4          9.0494   12.1581   24.1135 H       1  lig         0.1475
      5 H5          9.1479    6.8664   23.2074 H       1  lig         0.0877
      6 H6          7.6550    7.7136   23.4608 H       1  lig         0.0877
      7 H7          8.9012    7.5566   20.6807 H       1  lig         0.0966
      8 H8          7.1160    9.1745   21.1073 H       1  lig         0.4431
      9 H9          6.5195    7.9645   20.1414 H       1  lig         0.4431
     10 H10         6.1582    7.9775   21.7673 H       1  lig         0.4431
     11 H11        10.9756   13.0960   23.5140 H       1  lig         0.4214
     12 C1         10.6451    8.9873   22.5502 C.ar    1  lig        -0.0999
     13 C2          8.7924   10.1009   23.5450 C.ar    1  lig        -0.0999
     14 C3         11.3719   10.1353   22.7068 C.ar    1  lig        -0.1787
     15 C4          9.5052   11.2779   23.6712 C.ar    1  lig        -0.1787
     16 C5          9.3484    8.9673   22.9634 C.ar    1  lig        -0.1394
     17 C6         10.8211   11.2778   23.2238 C.ar    1  lig         0.1292
     18 C7          7.7991    5.8659   21.2921 C.2     1  lig         0.9321
     19 C8          8.5415    7.6913   22.8155 C.3     1  lig        -0.0452
     20 C9          8.1027    7.3432   21.3927 C.3     1  lig        -0.0740
     21 N1          6.9299    8.1579   21.0775 N.4     1  lig        -0.8252
     22 O1          8.7174    5.1291   21.6446 O.co2   1  lig        -0.7573
     23 O2          6.7058    5.4078   20.8520 O.co2   1  lig        -0.7573
     24 O3         11.5650   12.3030   23.3540 O.3     1  lig        -0.4913
@<TRIPOS>BOND
     1     1    12    1
     2     2    13    1
     3     3    14    1
     4     4    15    1
     5     5    19    1
     6     6    19    1
     7     7    20    1
     8     8    21    1
     9     9    21    1
    10    10    21    1
    11    11    24    1
    12    12    14   ar
    13    12    16   ar
    14    13    15   ar
    15    13    16   ar
    16    14    17   ar
    17    15    17   ar
    18    16    19    1
    19    17    24    1
    20    18    20    1
    21    18    22    1
    22    18    23    1
    23    19    20    1
    24    20    21    1
@<TRIPOS>SUBSTRUCTURE
     1 lig         1 TEMP              0 ****  ****    0 ROOT


########## Name:		ligand
########## HA_RMSDs:		13.7818
########## HA_RMSDh:		13.7371
########## HA_RMSDm:		12.0136
########## Cluster Size:	1
##########    Grid Score:          -17.477196
##########      Grid_vdw:          -16.510202
##########       Grid_es:           -0.966994
##########    Int_energy:            1.639730

@<TRIPOS>MOLECULE
ligand
 24 24 1 0 0
SMALL
No Charge or Current Charge


@<TRIPOS>ATOM
      1 H1          6.9790    9.3452   23.9380 H       1  lig         0.1340
      2 H2         10.1690    9.5972   21.1138 H       1  lig         0.1340
      3 H3          5.9502    7.6103   22.5667 H       1  lig         0.1475
      4 H4          9.1100    7.8810   19.6987 H       1  lig         0.1475
      5 H5         10.0748   11.1263   22.8631 H       1  lig         0.0877
      6 H6          8.5778   11.4788   23.6663 H       1  lig         0.0877
      7 H7          9.7642    9.0987   24.8810 H       1  lig         0.0966
      8 H8          8.1466   10.6389   25.8798 H       1  lig         0.4431
      9 H9          9.5186   10.6277   26.8128 H       1  lig         0.4431
     10 H10         9.2399   11.8951   25.7685 H       1  lig         0.4431
     11 H11         7.5374    6.2596   19.8518 H       1  lig         0.4214
     12 C1          7.4527    9.0383   23.0090 C.ar    1  lig        -0.0999
     13 C2          9.2247    9.1567   21.4251 C.ar    1  lig        -0.0999
     14 C3          6.8808    8.0618   22.2409 C.ar    1  lig        -0.1787
     15 C4          8.6353    8.1997   20.6212 C.ar    1  lig        -0.1787
     16 C5          8.6256    9.5952   22.6004 C.ar    1  lig        -0.1394
     17 C6          7.4284    7.6609   21.0511 C.ar    1  lig         0.1292
     18 C7         11.3562   10.4804   24.8210 C.2     1  lig         0.9321
     19 C8          9.2794   10.6621   23.4578 C.3     1  lig        -0.0452
     20 C9          9.8755   10.1793   24.7806 C.3     1  lig        -0.0740
     21 N1          9.1582   10.8518   25.8631 N.4     1  lig        -0.8252
     22 O1         11.6370   11.6762   24.7797 O.co2   1  lig        -0.7573
     23 O2         12.2482    9.5852   24.8611 O.co2   1  lig        -0.7573
     24 O3          6.8469    6.7346   20.3989 O.3     1  lig        -0.4913
@<TRIPOS>BOND
     1     1    12    1
     2     2    13    1
     3     3    14    1
     4     4    15    1
     5     5    19    1
     6     6    19    1
     7     7    20    1
     8     8    21    1
     9     9    21    1
    10    10    21    1
    11    11    24    1
    12    12    14   ar
    13    12    16   ar
    14    13    15   ar
    15    13    16   ar
    16    14    17   ar
    17    15    17   ar
    18    16    19    1
    19    17    24    1
    20    18    20    1
    21    18    22    1
    22    18    23    1
    23    19    20    1
    24    20    21    1
@<TRIPOS>SUBSTRUCTURE
     1 lig         1 TEMP              0 ****  ****    0 ROOT


########## Name:		ligand
########## HA_RMSDs:		10.5448
########## HA_RMSDh:		10.4370
########## HA_RMSDm:		8.0223
########## Cluster Size:	1
##########    Grid Score:          -17.466652
##########      Grid_vdw:          -16.525408
##########       Grid_es:           -0.941244
##########    Int_energy:            2.755920

@<TRIPOS>MOLECULE
ligand
 24 24 1 0 0
SMALL
No Charge or Current Charge


@<TRIPOS>ATOM
      1 H1         16.7508   12.8421   25.1914 H       1  lig         0.1340
      2 H2         18.9320   15.4716   27.7494 H       1  lig         0.1340
      3 H3         18.8513   12.1734   24.1478 H       1  lig         0.1475
      4 H4         21.0519   14.8379   26.6660 H       1  lig         0.1475
      5 H5         15.7516   13.7426   27.2004 H       1  lig         0.0877
      6 H6         16.5684   14.8651   28.2413 H       1  lig         0.0877
      7 H7         14.5892   15.5604   26.4627 H       1  lig         0.0966
      8 H8         16.0859   15.1224   24.5773 H       1  lig         0.4431
      9 H9         15.7907   16.7532   24.6561 H       1  lig         0.4431
     10 H10        17.2350   16.1467   25.2224 H       1  lig         0.4431
     11 H11        21.9075   13.4351   25.2193 H       1  lig         0.4214
     12 C1         17.6847   13.2914   25.5194 C.ar    1  lig        -0.0999
     13 C2         18.9218   14.7452   26.9401 C.ar    1  lig        -0.0999
     14 C3         18.8646   12.9142   24.9396 C.ar    1  lig        -0.1787
     15 C4         20.1152   14.4013   26.3344 C.ar    1  lig        -0.1787
     16 C5         17.7078   14.2147   26.5193 C.ar    1  lig        -0.1394
     17 C6         20.0621   13.4711   25.3030 C.ar    1  lig         0.1292
     18 C7         15.8062   17.0329   27.3556 C.2     1  lig         0.9321
     19 C8         16.4065   14.6216   27.1843 C.3     1  lig        -0.0452
     20 C9         15.6562   15.7792   26.5247 C.3     1  lig        -0.0740
     21 N1         16.2029   15.9544   25.1797 N.4     1  lig        -0.8252
     22 O1         16.7557   17.7464   27.0393 O.co2   1  lig        -0.7573
     23 O2         15.0448   17.3232   28.3225 O.co2   1  lig        -0.7573
     24 O3         21.1209   13.0574   24.7292 O.3     1  lig        -0.4913
@<TRIPOS>BOND
     1     1    12    1
     2     2    13    1
     3     3    14    1
     4     4    15    1
     5     5    19    1
     6     6    19    1
     7     7    20    1
     8     8    21    1
     9     9    21    1
    10    10    21    1
    11    11    24    1
    12    12    14   ar
    13    12    16   ar
    14    13    15   ar
    15    13    16   ar
    16    14    17   ar
    17    15    17   ar
    18    16    19    1
    19    17    24    1
    20    18    20    1
    21    18    22    1
    22    18    23    1
    23    19    20    1
    24    20    21    1
@<TRIPOS>SUBSTRUCTURE
     1 lig         1 TEMP              0 ****  ****    0 ROOT


########## Name:		ligand
########## HA_RMSDs:		9.9279
########## HA_RMSDh:		9.8147
########## HA_RMSDm:		8.4323
########## Cluster Size:	1
##########    Grid Score:          -17.458866
##########      Grid_vdw:          -16.692989
##########       Grid_es:           -0.765878
##########    Int_energy:            4.180865

@<TRIPOS>MOLECULE
ligand
 24 24 1 0 0
SMALL
No Charge or Current Charge


@<TRIPOS>ATOM
      1 H1         12.7381   12.5976   24.8250 H       1  lig         0.1340
      2 H2         15.0080    9.4614   23.0285 H       1  lig         0.1340
      3 H3         11.0151   12.2727   23.1296 H       1  lig         0.1475
      4 H4         13.2949    9.1616   21.2836 H       1  lig         0.1475
      5 H5         14.5926   11.7574   25.9355 H       1  lig         0.0877
      6 H6         15.3844   10.2827   25.4784 H       1  lig         0.0877
      7 H7         17.0859   11.9523   25.3941 H       1  lig         0.0966
      8 H8         15.5513   13.8579   25.4148 H       1  lig         0.4431
      9 H9         16.6553   14.0754   24.1954 H       1  lig         0.4431
     10 H10        15.1158   13.5531   23.8326 H       1  lig         0.4431
     11 H11        11.4817   10.7002   20.3374 H       1  lig         0.4214
     12 C1         12.8754   11.8462   24.0515 C.ar    1  lig        -0.0999
     13 C2         14.1206   10.0898   23.0380 C.ar    1  lig        -0.0999
     14 C3         11.9083   11.6581   23.1028 C.ar    1  lig        -0.1787
     15 C4         13.1686    9.9185   22.0512 C.ar    1  lig        -0.1787
     16 C5         13.9902   11.0659   24.0192 C.ar    1  lig        -0.1394
     17 C6         12.0490   10.7409   22.0953 C.ar    1  lig         0.1292
     18 C7         16.8302   11.5025   23.3498 C.2     1  lig         0.9321
     19 C8         15.0572   11.2513   25.0813 C.3     1  lig        -0.0452
     20 C9         16.2910   12.0465   24.6529 C.3     1  lig        -0.0740
     21 N1         15.8951   13.4489   24.5296 N.4     1  lig        -0.8252
     22 O1         17.6441   10.5899   23.4734 O.co2   1  lig        -0.7573
     23 O2         16.5054   11.9596   22.2165 O.co2   1  lig        -0.7573
     24 O3         11.0987   10.6114   21.2577 O.3     1  lig        -0.4913
@<TRIPOS>BOND
     1     1    12    1
     2     2    13    1
     3     3    14    1
     4     4    15    1
     5     5    19    1
     6     6    19    1
     7     7    20    1
     8     8    21    1
     9     9    21    1
    10    10    21    1
    11    11    24    1
    12    12    14   ar
    13    12    16   ar
    14    13    15   ar
    15    13    16   ar
    16    14    17   ar
    17    15    17   ar
    18    16    19    1
    19    17    24    1
    20    18    20    1
    21    18    22    1
    22    18    23    1
    23    19    20    1
    24    20    21    1
@<TRIPOS>SUBSTRUCTURE
     1 lig         1 TEMP              0 ****  ****    0 ROOT


########## Name:		ligand
########## HA_RMSDs:		13.8376
########## HA_RMSDh:		13.7519
########## HA_RMSDm:		11.8230
########## Cluster Size:	1
##########    Grid Score:          -17.454350
##########      Grid_vdw:          -13.792079
##########       Grid_es:           -3.662270
##########    Int_energy:            4.863031

@<TRIPOS>MOLECULE
ligand
 24 24 1 0 0
SMALL
No Charge or Current Charge


@<TRIPOS>ATOM
      1 H1         10.2795   11.1097   22.0515 H       1  lig         0.1340
      2 H2          9.7610    7.2600   23.8198 H       1  lig         0.1340
      3 H3          9.5322   10.1910   19.9193 H       1  lig         0.1475
      4 H4          9.0532    6.3140   21.6580 H       1  lig         0.1475
      5 H5         11.4508    9.2813   24.6924 H       1  lig         0.0877
      6 H6         10.8415   10.8550   24.2890 H       1  lig         0.0877
      7 H7          9.6961   10.4890   26.2756 H       1  lig         0.0966
      8 H8         10.6219    8.2423   26.5621 H       1  lig         0.4431
      9 H9          9.0029    8.2019   26.9230 H       1  lig         0.4431
     10 H10         9.5361    7.6290   25.4527 H       1  lig         0.4431
     11 H11         9.1394    8.4940   18.8173 H       1  lig         0.4214
     12 C1         10.0200   10.0566   21.9776 C.ar    1  lig        -0.0999
     13 C2          9.7167    7.9034   22.9442 C.ar    1  lig        -0.0999
     14 C3          9.5955    9.5401   20.7844 C.ar    1  lig        -0.1787
     15 C4          9.3249    7.3620   21.7348 C.ar    1  lig        -0.1787
     16 C5         10.0887    9.2376   23.0626 C.ar    1  lig        -0.1394
     17 C6          9.2820    8.2147   20.6381 C.ar    1  lig         0.1292
     18 C7          8.1216    9.9033   25.0010 C.2     1  lig         0.9321
     19 C8         10.5358    9.8071   24.3955 C.3     1  lig        -0.0452
     20 C9          9.5217    9.7066   25.5355 C.3     1  lig        -0.0740
     21 N1          9.6820    8.3934   26.1586 N.4     1  lig        -0.8252
     22 O1          7.9651   10.9269   24.3389 O.co2   1  lig        -0.7573
     23 O2          7.1685    9.1057   25.2340 O.co2   1  lig        -0.7573
     24 O3          8.8786    7.8103   19.5001 O.3     1  lig        -0.4913
@<TRIPOS>BOND
     1     1    12    1
     2     2    13    1
     3     3    14    1
     4     4    15    1
     5     5    19    1
     6     6    19    1
     7     7    20    1
     8     8    21    1
     9     9    21    1
    10    10    21    1
    11    11    24    1
    12    12    14   ar
    13    12    16   ar
    14    13    15   ar
    15    13    16   ar
    16    14    17   ar
    17    15    17   ar
    18    16    19    1
    19    17    24    1
    20    18    20    1
    21    18    22    1
    22    18    23    1
    23    19    20    1
    24    20    21    1
@<TRIPOS>SUBSTRUCTURE
     1 lig         1 TEMP              0 ****  ****    0 ROOT


########## Name:		ligand
########## HA_RMSDs:		15.7094
########## HA_RMSDh:		15.6556
########## HA_RMSDm:		13.3459
########## Cluster Size:	1
##########    Grid Score:          -17.447496
##########      Grid_vdw:          -18.377302
##########       Grid_es:            0.929806
##########    Int_energy:            1.646577

@<TRIPOS>MOLECULE
ligand
 24 24 1 0 0
SMALL
No Charge or Current Charge


@<TRIPOS>ATOM
      1 H1          5.4392    7.9198   23.0593 H       1  lig         0.1340
      2 H2          8.1479    6.0363   20.3517 H       1  lig         0.1340
      3 H3          4.1974    5.8265   23.2164 H       1  lig         0.1475
      4 H4          6.8696    3.9335   20.4669 H       1  lig         0.1475
      5 H5          7.5281    8.8008   20.5731 H       1  lig         0.0877
      6 H6          7.2016    9.1791   22.2347 H       1  lig         0.0877
      7 H7          9.4050    7.2749   22.1523 H       1  lig         0.0966
      8 H8          8.8887    8.9021   23.9051 H       1  lig         0.4431
      9 H9         10.4126    9.2087   23.3249 H       1  lig         0.4431
     10 H10         9.1364   10.1625   22.8393 H       1  lig         0.4431
     11 H11         4.0126    3.8954   22.6578 H       1  lig         0.4214
     12 C1          5.7594    7.0564   22.4816 C.ar    1  lig        -0.0999
     13 C2          7.2615    5.9840   20.9796 C.ar    1  lig        -0.0999
     14 C3          5.0681    5.8797   22.5720 C.ar    1  lig        -0.1787
     15 C4          6.5475    4.8022   21.0323 C.ar    1  lig        -0.1787
     16 C5          6.8569    7.1154   21.6787 C.ar    1  lig        -0.1394
     17 C6          5.4197    4.7739   21.8442 C.ar    1  lig         0.1292
     18 C7          9.9509    8.7020   20.6990 C.2     1  lig         0.9321
     19 C8          7.6436    8.4093   21.5906 C.3     1  lig        -0.0452
     20 C9          9.1357    8.3034   21.9078 C.3     1  lig        -0.0740
     21 N1          9.4092    9.1706   23.0531 N.4     1  lig        -0.8252
     22 O1         10.1463    7.7962   19.8915 O.co2   1  lig        -0.7573
     23 O2         10.4287    9.8608   20.5321 O.co2   1  lig        -0.7573
     24 O3          4.7375    3.7092   21.9933 O.3     1  lig        -0.4913
@<TRIPOS>BOND
     1     1    12    1
     2     2    13    1
     3     3    14    1
     4     4    15    1
     5     5    19    1
     6     6    19    1
     7     7    20    1
     8     8    21    1
     9     9    21    1
    10    10    21    1
    11    11    24    1
    12    12    14   ar
    13    12    16   ar
    14    13    15   ar
    15    13    16   ar
    16    14    17   ar
    17    15    17   ar
    18    16    19    1
    19    17    24    1
    20    18    20    1
    21    18    22    1
    22    18    23    1
    23    19    20    1
    24    20    21    1
@<TRIPOS>SUBSTRUCTURE
     1 lig         1 TEMP              0 ****  ****    0 ROOT


########## Name:		ligand
########## HA_RMSDs:		11.4875
########## HA_RMSDh:		11.4875
########## HA_RMSDm:		9.7060
########## Cluster Size:	1
##########    Grid Score:          -17.441975
##########      Grid_vdw:          -17.534826
##########       Grid_es:            0.092851
##########    Int_energy:            1.520065

@<TRIPOS>MOLECULE
ligand
 24 24 1 0 0
SMALL
No Charge or Current Charge


@<TRIPOS>ATOM
      1 H1         12.0602   12.2503   25.0336 H       1  lig         0.1340
      2 H2          9.4472   10.0676   22.4600 H       1  lig         0.1340
      3 H3         10.1630   12.7376   26.4869 H       1  lig         0.1475
      4 H4          7.5176   10.5980   23.8969 H       1  lig         0.1475
      5 H5         11.7188   10.9528   21.7081 H       1  lig         0.0877
      6 H6         12.8477   11.5660   22.8744 H       1  lig         0.0877
      7 H7         11.9387    8.6687   22.5624 H       1  lig         0.0966
      8 H8         12.0933    9.2797   24.9266 H       1  lig         0.4431
      9 H9         13.3873    8.3161   24.5391 H       1  lig         0.4431
     10 H10        13.5951    9.9632   24.6750 H       1  lig         0.4431
     11 H11         6.9486   11.6265   25.7360 H       1  lig         0.4214
     12 C1         11.0698   11.8879   24.7699 C.ar    1  lig        -0.0999
     13 C2          9.5961   10.6697   23.3533 C.ar    1  lig        -0.0999
     14 C3         10.0052   12.1550   25.5859 C.ar    1  lig        -0.1787
     15 C4          8.5065   10.9674   24.1492 C.ar    1  lig        -0.1787
     16 C5         10.8682   11.1484   23.6450 C.ar    1  lig        -0.1394
     17 C6          8.7357   11.7404   25.2813 C.ar    1  lig         0.1292
     18 C7         13.8877    9.2963   22.0583 C.2     1  lig         0.9321
     19 C8         12.0473   10.8272   22.7465 C.3     1  lig        -0.0452
     20 C9         12.6430    9.4279   22.9056 C.3     1  lig        -0.0740
     21 N1         12.9324    9.2268   24.3249 N.4     1  lig        -0.8252
     22 O1         13.6867    8.9092   20.9092 O.co2   1  lig        -0.7573
     23 O2         15.0527    9.5300   22.4907 O.co2   1  lig        -0.7573
     24 O3          7.7977   12.0133   26.0980 O.3     1  lig        -0.4913
@<TRIPOS>BOND
     1     1    12    1
     2     2    13    1
     3     3    14    1
     4     4    15    1
     5     5    19    1
     6     6    19    1
     7     7    20    1
     8     8    21    1
     9     9    21    1
    10    10    21    1
    11    11    24    1
    12    12    14   ar
    13    12    16   ar
    14    13    15   ar
    15    13    16   ar
    16    14    17   ar
    17    15    17   ar
    18    16    19    1
    19    17    24    1
    20    18    20    1
    21    18    22    1
    22    18    23    1
    23    19    20    1
    24    20    21    1
@<TRIPOS>SUBSTRUCTURE
     1 lig         1 TEMP              0 ****  ****    0 ROOT


########## Name:		ligand
########## HA_RMSDs:		12.1079
########## HA_RMSDh:		12.0135
########## HA_RMSDm:		8.9882
########## Cluster Size:	1
##########    Grid Score:          -17.431387
##########      Grid_vdw:          -15.323168
##########       Grid_es:           -2.108220
##########    Int_energy:            2.948800

@<TRIPOS>MOLECULE
ligand
 24 24 1 0 0
SMALL
No Charge or Current Charge


@<TRIPOS>ATOM
      1 H1         17.6036   18.3676   30.2563 H       1  lig         0.1340
      2 H2         19.0123   14.8535   28.2860 H       1  lig         0.1340
      3 H3         16.1168   18.7862   28.3687 H       1  lig         0.1475
      4 H4         17.5496   15.2973   26.3541 H       1  lig         0.1475
      5 H5         18.8204   16.6705   31.4634 H       1  lig         0.0877
      6 H6         19.4575   15.2436   30.7092 H       1  lig         0.0877
      7 H7         21.2986   16.7203   31.3788 H       1  lig         0.0966
      8 H8         20.0295   18.8084   31.2520 H       1  lig         0.4431
      9 H9         21.4030   18.9625   30.3340 H       1  lig         0.4431
     10 H10        19.9397   18.6792   29.5903 H       1  lig         0.4431
     11 H11        16.1643   16.7982   25.5219 H       1  lig         0.4214
     12 C1         17.6061   17.6910   29.4055 C.ar    1  lig        -0.0999
     13 C2         18.3717   15.7322   28.2921 C.ar    1  lig        -0.0999
     14 C3         16.7695   17.9204   28.3481 C.ar    1  lig        -0.1787
     15 C4         17.5597   15.9761   27.2009 C.ar    1  lig        -0.1787
     16 C5         18.4166   16.5978   29.3789 C.ar    1  lig        -0.1394
     17 C6         16.7562   17.1094   27.2443 C.ar    1  lig         0.1292
     18 C7         21.4728   16.4568   29.2938 C.2     1  lig         0.9321
     19 C8         19.3307   16.3225   30.5577 C.3     1  lig        -0.0452
     20 C9         20.7128   16.9734   30.4939 C.3     1  lig        -0.0740
     21 N1         20.5195   18.4215   30.4278 N.4     1  lig        -0.8252
     22 O1         22.0171   15.3677   29.4622 O.co2   1  lig        -0.7573
     23 O2         21.5776   17.0956   28.2077 O.co2   1  lig        -0.7573
     24 O3         15.9382   17.3776   26.3061 O.3     1  lig        -0.4913
@<TRIPOS>BOND
     1     1    12    1
     2     2    13    1
     3     3    14    1
     4     4    15    1
     5     5    19    1
     6     6    19    1
     7     7    20    1
     8     8    21    1
     9     9    21    1
    10    10    21    1
    11    11    24    1
    12    12    14   ar
    13    12    16   ar
    14    13    15   ar
    15    13    16   ar
    16    14    17   ar
    17    15    17   ar
    18    16    19    1
    19    17    24    1
    20    18    20    1
    21    18    22    1
    22    18    23    1
    23    19    20    1
    24    20    21    1
@<TRIPOS>SUBSTRUCTURE
     1 lig         1 TEMP              0 ****  ****    0 ROOT


########## Name:		ligand
########## HA_RMSDs:		13.2424
########## HA_RMSDh:		13.1643
########## HA_RMSDm:		9.4985
########## Cluster Size:	1
##########    Grid Score:          -17.425722
##########      Grid_vdw:          -17.538774
##########       Grid_es:            0.113053
##########    Int_energy:            3.267237

@<TRIPOS>MOLECULE
ligand
 24 24 1 0 0
SMALL
No Charge or Current Charge


@<TRIPOS>ATOM
      1 H1         13.2852   15.4012   28.9519 H       1  lig         0.1340
      2 H2         15.8834   18.3146   30.6774 H       1  lig         0.1340
      3 H3         14.3955   15.7347   26.8061 H       1  lig         0.1475
      4 H4         16.9759   18.6926   28.5019 H       1  lig         0.1475
      5 H5         13.8565   17.5877   31.8294 H       1  lig         0.0877
      6 H6         12.7556   16.4293   31.1535 H       1  lig         0.0877
      7 H7         13.8833   15.4611   33.1053 H       1  lig         0.0966
      8 H8         15.9163   16.8126   32.9402 H       1  lig         0.4431
      9 H9         16.3441   15.2105   32.9956 H       1  lig         0.4431
     10 H10        16.3570   16.0192   31.5395 H       1  lig         0.4431
     11 H11        17.0339   17.9748   26.4403 H       1  lig         0.4214
     12 C1         14.0876   16.1295   28.8656 C.ar    1  lig        -0.0999
     13 C2         15.5516   17.7514   29.8083 C.ar    1  lig        -0.0999
     14 C3         14.7157   16.3146   27.6648 C.ar    1  lig        -0.1787
     15 C4         16.1662   17.9754   28.5911 C.ar    1  lig        -0.1787
     16 C5         14.4994   16.8530   29.9425 C.ar    1  lig        -0.1394
     17 C6         15.7142   17.2381   27.5030 C.ar    1  lig         0.1292
     18 C7         14.3352   14.2067   31.4716 C.2     1  lig         0.9321
     19 C8         13.8245   16.6374   31.2838 C.3     1  lig        -0.0452
     20 C9         14.4316   15.5459   32.1659 C.3     1  lig        -0.0740
     21 N1         15.8206   15.9146   32.4369 N.4     1  lig        -0.8252
     22 O1         13.2968   13.5880   31.6939 O.co2   1  lig        -0.7573
     23 O2         15.2535   13.7318   30.7436 O.co2   1  lig        -0.7573
     24 O3         16.2626   17.3423   26.3586 O.3     1  lig        -0.4913
@<TRIPOS>BOND
     1     1    12    1
     2     2    13    1
     3     3    14    1
     4     4    15    1
     5     5    19    1
     6     6    19    1
     7     7    20    1
     8     8    21    1
     9     9    21    1
    10    10    21    1
    11    11    24    1
    12    12    14   ar
    13    12    16   ar
    14    13    15   ar
    15    13    16   ar
    16    14    17   ar
    17    15    17   ar
    18    16    19    1
    19    17    24    1
    20    18    20    1
    21    18    22    1
    22    18    23    1
    23    19    20    1
    24    20    21    1
@<TRIPOS>SUBSTRUCTURE
     1 lig         1 TEMP              0 ****  ****    0 ROOT


########## Name:		ligand
########## HA_RMSDs:		13.1736
########## HA_RMSDh:		13.0971
########## HA_RMSDm:		11.1186
########## Cluster Size:	1
##########    Grid Score:          -17.417576
##########      Grid_vdw:          -15.654656
##########       Grid_es:           -1.762920
##########    Int_energy:            1.202532

@<TRIPOS>MOLECULE
ligand
 24 24 1 0 0
SMALL
No Charge or Current Charge


@<TRIPOS>ATOM
      1 H1         13.7731   15.1384   27.7463 H       1  lig         0.1340
      2 H2         12.8994   14.3444   31.8477 H       1  lig         0.1340
      3 H3         14.5219   17.3727   28.3758 H       1  lig         0.1475
      4 H4         13.6072   16.6168   32.4838 H       1  lig         0.1475
      5 H5         13.5766   12.7905   28.7021 H       1  lig         0.0877
      6 H6         12.8190   12.5505   30.2445 H       1  lig         0.0877
      7 H7         10.9689   14.0957   28.6585 H       1  lig         0.0966
      8 H8         10.4744   12.4833   30.4311 H       1  lig         0.4431
      9 H9          9.6945   12.0086   29.0457 H       1  lig         0.4431
     10 H10        11.0993   11.2417   29.5071 H       1  lig         0.4431
     11 H11        15.3012   18.2342   31.3063 H       1  lig         0.4214
     12 C1         13.7256   15.4517   28.7861 C.ar    1  lig        -0.0999
     13 C2         13.2528   15.0282   31.0795 C.ar    1  lig        -0.0999
     14 C3         14.1500   16.7021   29.1427 C.ar    1  lig        -0.1787
     15 C4         13.6413   16.3028   31.4454 C.ar    1  lig        -0.1787
     16 C5         13.2685   14.6105   29.7537 C.ar    1  lig        -0.1394
     17 C6         14.0855   17.1487   30.4360 C.ar    1  lig         0.1292
     18 C7         11.6246   12.6654   27.2544 C.2     1  lig         0.9321
     19 C8         12.8180   13.2136   29.3709 C.3     1  lig        -0.0452
     20 C9         11.4541   13.1189   28.6862 C.3     1  lig        -0.0740
     21 N1         10.6348   12.1828   29.4550 N.4     1  lig        -0.8252
     22 O1         11.7895   11.4553   27.1166 O.co2   1  lig        -0.7573
     23 O2         11.6323   13.4576   26.2690 O.co2   1  lig        -0.7573
     24 O3         14.5142   18.3196   30.6939 O.3     1  lig        -0.4913
@<TRIPOS>BOND
     1     1    12    1
     2     2    13    1
     3     3    14    1
     4     4    15    1
     5     5    19    1
     6     6    19    1
     7     7    20    1
     8     8    21    1
     9     9    21    1
    10    10    21    1
    11    11    24    1
    12    12    14   ar
    13    12    16   ar
    14    13    15   ar
    15    13    16   ar
    16    14    17   ar
    17    15    17   ar
    18    16    19    1
    19    17    24    1
    20    18    20    1
    21    18    22    1
    22    18    23    1
    23    19    20    1
    24    20    21    1
@<TRIPOS>SUBSTRUCTURE
     1 lig         1 TEMP              0 ****  ****    0 ROOT


########## Name:		ligand
########## HA_RMSDs:		13.2290
########## HA_RMSDh:		13.2191
########## HA_RMSDm:		10.8829
########## Cluster Size:	1
##########    Grid Score:          -17.416954
##########      Grid_vdw:          -17.521328
##########       Grid_es:            0.104374
##########    Int_energy:            3.687174

@<TRIPOS>MOLECULE
ligand
 24 24 1 0 0
SMALL
No Charge or Current Charge


@<TRIPOS>ATOM
      1 H1         17.9662   17.6189   31.0873 H       1  lig         0.1340
      2 H2         14.0168   17.4494   29.4782 H       1  lig         0.1340
      3 H3         17.0423   17.1938   33.3041 H       1  lig         0.1475
      4 H4         13.0720   17.0695   31.7214 H       1  lig         0.1475
      5 H5         15.8736   18.3974   28.1939 H       1  lig         0.0877
      6 H6         17.4910   18.4918   28.8150 H       1  lig         0.0877
      7 H7         17.8504   16.7813   27.3203 H       1  lig         0.0966
      8 H8         15.5568   16.9302   26.4812 H       1  lig         0.4431
      9 H9         15.9753   15.3297   26.6083 H       1  lig         0.4431
     10 H10        15.0030   16.0241   27.7689 H       1  lig         0.4431
     11 H11        14.0161   16.0964   33.8088 H       1  lig         0.4214
     12 C1         16.8923   17.5068   31.2132 C.ar    1  lig        -0.0999
     13 C2         14.6825   17.4009   30.3367 C.ar    1  lig        -0.0999
     14 C3         16.3720   17.2629   32.4544 C.ar    1  lig        -0.1787
     15 C4         14.1424   17.1940   31.5916 C.ar    1  lig        -0.1787
     16 C5         16.0477   17.5833   30.1485 C.ar    1  lig        -0.1394
     17 C6         15.0242   17.1395   32.6646 C.ar    1  lig         0.1292
     18 C7         17.4043   15.4710   28.9112 C.2     1  lig         0.9321
     19 C8         16.6180   17.8299   28.7647 C.3     1  lig        -0.0452
     20 C9         16.9965   16.5803   27.9690 C.3     1  lig        -0.0740
     21 N1         15.8395   16.2020   27.1585 N.4     1  lig        -0.8252
     22 O1         18.6024   15.4455   29.1844 O.co2   1  lig        -0.7573
     23 O2         16.5967   14.6105   29.3653 O.co2   1  lig        -0.7573
     24 O3         14.6156   16.8969   33.8459 O.3     1  lig        -0.4913
@<TRIPOS>BOND
     1     1    12    1
     2     2    13    1
     3     3    14    1
     4     4    15    1
     5     5    19    1
     6     6    19    1
     7     7    20    1
     8     8    21    1
     9     9    21    1
    10    10    21    1
    11    11    24    1
    12    12    14   ar
    13    12    16   ar
    14    13    15   ar
    15    13    16   ar
    16    14    17   ar
    17    15    17   ar
    18    16    19    1
    19    17    24    1
    20    18    20    1
    21    18    22    1
    22    18    23    1
    23    19    20    1
    24    20    21    1
@<TRIPOS>SUBSTRUCTURE
     1 lig         1 TEMP              0 ****  ****    0 ROOT


########## Name:		ligand
########## HA_RMSDs:		14.5604
########## HA_RMSDh:		14.5088
########## HA_RMSDm:		11.9999
########## Cluster Size:	1
##########    Grid Score:          -17.392653
##########      Grid_vdw:          -16.083830
##########       Grid_es:           -1.308822
##########    Int_energy:            3.487786

@<TRIPOS>MOLECULE
ligand
 24 24 1 0 0
SMALL
No Charge or Current Charge


@<TRIPOS>ATOM
      1 H1         26.2489    5.2866   12.3979 H       1  lig         0.1340
      2 H2         23.8571    8.6391   13.5185 H       1  lig         0.1340
      3 H3         24.2144    4.0797   11.8037 H       1  lig         0.1475
      4 H4         21.7956    7.4081   12.9675 H       1  lig         0.1475
      5 H5         27.1052    7.7603   12.4991 H       1  lig         0.0877
      6 H6         26.2259    8.8565   13.5168 H       1  lig         0.0877
      7 H7         27.6894    8.1006   15.1180 H       1  lig         0.0966
      8 H8         28.9106    6.7692   13.4679 H       1  lig         0.4431
      9 H9         28.7779    5.8908   14.8692 H       1  lig         0.4431
     10 H10        27.7782    5.5483   13.5816 H       1  lig         0.4431
     11 H11        21.1072    5.5827   11.9077 H       1  lig         0.4214
     12 C1         25.2799    5.7603   12.5334 C.ar    1  lig        -0.0999
     13 C2         23.9273    7.6201   13.1454 C.ar    1  lig        -0.0999
     14 C3         24.1378    5.0879   12.1959 C.ar    1  lig        -0.1787
     15 C4         22.7650    6.9356   12.8454 C.ar    1  lig        -0.1787
     16 C5         25.1789    7.0289   13.0164 C.ar    1  lig        -0.1394
     17 C6         22.8946    5.6351   12.3725 C.ar    1  lig         0.1292
     18 C7         26.2564    6.6182   15.5607 C.2     1  lig         0.9321
     19 C8         26.4415    7.7911   13.3711 C.3     1  lig        -0.0452
     20 C9         27.2092    7.2760   14.5890 C.3     1  lig        -0.0740
     21 N1         28.2247    6.3387   14.1106 N.4     1  lig        -0.8252
     22 O1         25.4977    7.3936   16.1385 O.co2   1  lig        -0.7573
     23 O2         26.2491    5.3759   15.7963 O.co2   1  lig        -0.7573
     24 O3         21.8780    4.9542   12.0199 O.3     1  lig        -0.4913
@<TRIPOS>BOND
     1     1    12    1
     2     2    13    1
     3     3    14    1
     4     4    15    1
     5     5    19    1
     6     6    19    1
     7     7    20    1
     8     8    21    1
     9     9    21    1
    10    10    21    1
    11    11    24    1
    12    12    14   ar
    13    12    16   ar
    14    13    15   ar
    15    13    16   ar
    16    14    17   ar
    17    15    17   ar
    18    16    19    1
    19    17    24    1
    20    18    20    1
    21    18    22    1
    22    18    23    1
    23    19    20    1
    24    20    21    1
@<TRIPOS>SUBSTRUCTURE
     1 lig         1 TEMP              0 ****  ****    0 ROOT


########## Name:		ligand
########## HA_RMSDs:		9.5124
########## HA_RMSDh:		9.4520
########## HA_RMSDm:		7.7132
########## Cluster Size:	1
##########    Grid Score:          -17.358915
##########      Grid_vdw:          -14.369240
##########       Grid_es:           -2.989675
##########    Int_energy:            3.256574

@<TRIPOS>MOLECULE
ligand
 24 24 1 0 0
SMALL
No Charge or Current Charge


@<TRIPOS>ATOM
      1 H1         17.9710   13.6779   26.0983 H       1  lig         0.1340
      2 H2         19.9957   10.7004   23.8069 H       1  lig         0.1340
      3 H3         20.0350   14.9754   26.1690 H       1  lig         0.1475
      4 H4         22.0969   11.9819   23.9170 H       1  lig         0.1475
      5 H5         17.8034   10.2752   25.2364 H       1  lig         0.0877
      6 H6         16.8473   11.6666   25.6371 H       1  lig         0.0877
      7 H7         17.5755   10.7941   22.7952 H       1  lig         0.0966
      8 H8         17.3645   13.2174   23.0589 H       1  lig         0.4431
      9 H9         16.0365   12.6524   22.2401 H       1  lig         0.4431
     10 H10        15.9119   13.0266   23.8584 H       1  lig         0.4431
     11 H11        22.1113   14.9309   25.9213 H       1  lig         0.4214
     12 C1         18.8688   13.2922   25.6220 C.ar    1  lig        -0.0999
     13 C2         20.0156   11.6485   24.3391 C.ar    1  lig        -0.0999
     14 C3         20.0262   14.0202   25.6555 C.ar    1  lig        -0.1787
     15 C4         21.2005   12.3566   24.4009 C.ar    1  lig        -0.1787
     16 C5         18.8604   12.0984   24.9681 C.ar    1  lig        -0.1394
     17 C6         21.1875   13.5630   25.0911 C.ar    1  lig         0.1292
     18 C7         15.6831   10.3322   23.6029 C.2     1  lig         0.9321
     19 C8         17.5752   11.2952   24.9056 C.3     1  lig        -0.0452
     20 C9         16.9002   11.2259   23.5353 C.3     1  lig        -0.0740
     21 N1         16.5471   12.5901   23.1443 N.4     1  lig        -0.8252
     22 O1         15.7173    9.4868   24.4944 O.co2   1  lig        -0.7573
     23 O2         14.7139   10.4128   22.7948 O.co2   1  lig        -0.7573
     24 O3         22.2211   14.3044   25.1486 O.3     1  lig        -0.4913
@<TRIPOS>BOND
     1     1    12    1
     2     2    13    1
     3     3    14    1
     4     4    15    1
     5     5    19    1
     6     6    19    1
     7     7    20    1
     8     8    21    1
     9     9    21    1
    10    10    21    1
    11    11    24    1
    12    12    14   ar
    13    12    16   ar
    14    13    15   ar
    15    13    16   ar
    16    14    17   ar
    17    15    17   ar
    18    16    19    1
    19    17    24    1
    20    18    20    1
    21    18    22    1
    22    18    23    1
    23    19    20    1
    24    20    21    1
@<TRIPOS>SUBSTRUCTURE
     1 lig         1 TEMP              0 ****  ****    0 ROOT


########## Name:		ligand
########## HA_RMSDs:		17.7015
########## HA_RMSDh:		17.6546
########## HA_RMSDm:		15.7859
########## Cluster Size:	1
##########    Grid Score:          -17.339994
##########      Grid_vdw:          -11.409992
##########       Grid_es:           -5.930002
##########    Int_energy:            1.492464

@<TRIPOS>MOLECULE
ligand
 24 24 1 0 0
SMALL
No Charge or Current Charge


@<TRIPOS>ATOM
      1 H1          4.6190    9.9624   29.4121 H       1  lig         0.1340
      2 H2          7.8022    8.5469   26.9464 H       1  lig         0.1340
      3 H3          3.4703    7.8354   29.0877 H       1  lig         0.1475
      4 H4          6.6244    6.4154   26.5739 H       1  lig         0.1475
      5 H5          6.8923   11.3013   27.4767 H       1  lig         0.0877
      6 H6          6.5034   11.3091   29.1677 H       1  lig         0.0877
      7 H7          8.8124    9.5598   28.6952 H       1  lig         0.0966
      8 H8          8.1429   10.5972   30.8077 H       1  lig         0.4431
      9 H9          9.6597   11.1364   30.4060 H       1  lig         0.4431
     10 H10         8.3390   12.1182   30.1489 H       1  lig         0.4431
     11 H11         3.4487    6.0110   28.2230 H       1  lig         0.4214
     12 C1          5.0661    9.1967   28.7832 C.ar    1  lig        -0.0999
     13 C2          6.8328    8.3842   27.4115 C.ar    1  lig        -0.0999
     14 C3          4.4267    8.0010   28.6040 C.ar    1  lig        -0.1787
     15 C4          6.1771    7.1880   27.1912 C.ar    1  lig        -0.1787
     16 C5          6.2707    9.3960   28.1815 C.ar    1  lig        -0.1394
     17 C6          4.9398    7.0171   27.8010 C.ar    1  lig         0.1292
     18 C7          9.3063   11.3658   27.7249 C.2     1  lig         0.9321
     19 C8          6.9983   10.7100   28.3937 C.3     1  lig        -0.0452
     20 C9          8.4844   10.5996   28.7360 C.3     1  lig        -0.0740
     21 N1          8.6690   11.1225   30.0892 N.4     1  lig        -0.8252
     22 O1          9.4920   12.5478   28.0059 O.co2   1  lig        -0.7573
     23 O2          9.7471   10.8557   26.6552 O.co2   1  lig        -0.7573
     24 O3          4.2949    5.9242   27.6957 O.3     1  lig        -0.4913
@<TRIPOS>BOND
     1     1    12    1
     2     2    13    1
     3     3    14    1
     4     4    15    1
     5     5    19    1
     6     6    19    1
     7     7    20    1
     8     8    21    1
     9     9    21    1
    10    10    21    1
    11    11    24    1
    12    12    14   ar
    13    12    16   ar
    14    13    15   ar
    15    13    16   ar
    16    14    17   ar
    17    15    17   ar
    18    16    19    1
    19    17    24    1
    20    18    20    1
    21    18    22    1
    22    18    23    1
    23    19    20    1
    24    20    21    1
@<TRIPOS>SUBSTRUCTURE
     1 lig         1 TEMP              0 ****  ****    0 ROOT


########## Name:		ligand
########## HA_RMSDs:		14.0298
########## HA_RMSDh:		14.0216
########## HA_RMSDm:		12.0120
########## Cluster Size:	1
##########    Grid Score:          -17.307854
##########      Grid_vdw:          -18.198683
##########       Grid_es:            0.890829
##########    Int_energy:            1.126821

@<TRIPOS>MOLECULE
ligand
 24 24 1 0 0
SMALL
No Charge or Current Charge


@<TRIPOS>ATOM
      1 H1          6.8487    9.2490   23.5894 H       1  lig         0.1340
      2 H2         10.0875    9.0594   20.8163 H       1  lig         0.1340
      3 H3          7.9207   11.1632   24.6550 H       1  lig         0.1475
      4 H4         11.2003   10.9608   21.9187 H       1  lig         0.1475
      5 H5          6.7427    8.1629   21.1557 H       1  lig         0.0877
      6 H6          8.2579    7.5821   20.5412 H       1  lig         0.0877
      7 H7          7.3875    6.8337   23.3614 H       1  lig         0.0966
      8 H8          9.6721    6.3821   22.6107 H       1  lig         0.4431
      9 H9          8.8633    4.9405   22.7549 H       1  lig         0.4431
     10 H10         9.0956    5.6104   21.2476 H       1  lig         0.4431
     11 H11        10.7035   12.6559   23.3347 H       1  lig         0.4214
     12 C1          7.8044    9.6099   23.2176 C.ar    1  lig        -0.0999
     13 C2          9.6166    9.5273   21.6776 C.ar    1  lig        -0.0999
     14 C3          8.4051   10.6865   23.8099 C.ar    1  lig        -0.1787
     15 C4         10.2518   10.5889   22.2931 C.ar    1  lig        -0.1787
     16 C5          8.4118    9.0209   22.1514 C.ar    1  lig        -0.1394
     17 C6          9.6204   11.1601   23.3917 C.ar    1  lig         0.1292
     18 C7          6.4443    5.7435   21.8224 C.2     1  lig         0.9321
     19 C8          7.7414    7.8411   21.4734 C.3     1  lig        -0.0452
     20 C9          7.6014    6.5774   22.3228 C.3     1  lig        -0.0740
     21 N1          8.8662    5.8474   22.2452 N.4     1  lig        -0.8252
     22 O1          5.3521    6.0449   22.2985 O.co2   1  lig        -0.7573
     23 O2          6.5765    4.7880   21.0049 O.co2   1  lig        -0.7573
     24 O3         10.1094   12.1767   23.9821 O.3     1  lig        -0.4913
@<TRIPOS>BOND
     1     1    12    1
     2     2    13    1
     3     3    14    1
     4     4    15    1
     5     5    19    1
     6     6    19    1
     7     7    20    1
     8     8    21    1
     9     9    21    1
    10    10    21    1
    11    11    24    1
    12    12    14   ar
    13    12    16   ar
    14    13    15   ar
    15    13    16   ar
    16    14    17   ar
    17    15    17   ar
    18    16    19    1
    19    17    24    1
    20    18    20    1
    21    18    22    1
    22    18    23    1
    23    19    20    1
    24    20    21    1
@<TRIPOS>SUBSTRUCTURE
     1 lig         1 TEMP              0 ****  ****    0 ROOT


########## Name:		ligand
########## HA_RMSDs:		12.1369
########## HA_RMSDh:		12.0627
########## HA_RMSDm:		9.7411
########## Cluster Size:	1
##########    Grid Score:          -17.305145
##########      Grid_vdw:          -14.931787
##########       Grid_es:           -2.373357
##########    Int_energy:            1.429308

@<TRIPOS>MOLECULE
ligand
 24 24 1 0 0
SMALL
No Charge or Current Charge


@<TRIPOS>ATOM
      1 H1         13.4544   12.2824   23.7025 H       1  lig         0.1340
      2 H2         10.7685    9.0739   24.5436 H       1  lig         0.1340
      3 H3         13.5869   11.5174   21.3904 H       1  lig         0.1475
      4 H4         10.9369    8.2664   22.2223 H       1  lig         0.1475
      5 H5         11.4049   10.4741   26.2579 H       1  lig         0.0877
      6 H6         12.9998   11.1550   26.2011 H       1  lig         0.0877
      7 H7         11.2624   13.0745   24.9368 H       1  lig         0.0966
      8 H8         13.3056   13.4831   26.2194 H       1  lig         0.4431
      9 H9         12.0616   14.3344   26.9127 H       1  lig         0.4431
     10 H10        12.5760   12.9103   27.6070 H       1  lig         0.4431
     11 H11        12.4886   10.3595   19.9001 H       1  lig         0.4214
     12 C1         12.9031   11.3981   23.3931 C.ar    1  lig        -0.0999
     13 C2         11.4015    9.6064   23.8377 C.ar    1  lig        -0.0999
     14 C3         12.9713   10.9701   22.0958 C.ar    1  lig        -0.1787
     15 C4         11.4945    9.1418   22.5397 C.ar    1  lig        -0.1787
     16 C5         12.1217   10.7131   24.2723 C.ar    1  lig        -0.1394
     17 C6         12.3143    9.8474   21.6668 C.ar    1  lig         0.1292
     18 C7         10.0909   12.4962   26.5921 C.2     1  lig         0.9321
     19 C8         12.0213   11.1943   25.7073 C.3     1  lig        -0.0452
     20 C9         11.4315   12.5918   25.9004 C.3     1  lig        -0.0740
     21 N1         12.3880   13.3737   26.6829 N.4     1  lig        -0.8252
     22 O1          9.1973   11.9985   25.9106 O.co2   1  lig        -0.7573
     23 O2          9.8803   12.9191   27.7649 O.co2   1  lig        -0.7573
     24 O3         12.4127    9.5203   20.4401 O.3     1  lig        -0.4913
@<TRIPOS>BOND
     1     1    12    1
     2     2    13    1
     3     3    14    1
     4     4    15    1
     5     5    19    1
     6     6    19    1
     7     7    20    1
     8     8    21    1
     9     9    21    1
    10    10    21    1
    11    11    24    1
    12    12    14   ar
    13    12    16   ar
    14    13    15   ar
    15    13    16   ar
    16    14    17   ar
    17    15    17   ar
    18    16    19    1
    19    17    24    1
    20    18    20    1
    21    18    22    1
    22    18    23    1
    23    19    20    1
    24    20    21    1
@<TRIPOS>SUBSTRUCTURE
     1 lig         1 TEMP              0 ****  ****    0 ROOT


########## Name:		ligand
########## HA_RMSDs:		16.1430
########## HA_RMSDh:		16.1014
########## HA_RMSDm:		14.0769
########## Cluster Size:	1
##########    Grid Score:          -17.299328
##########      Grid_vdw:          -17.776926
##########       Grid_es:            0.477598
##########    Int_energy:            3.104329

@<TRIPOS>MOLECULE
ligand
 24 24 1 0 0
SMALL
No Charge or Current Charge


@<TRIPOS>ATOM
      1 H1         22.8458    3.1207   12.3017 H       1  lig         0.1340
      2 H2         26.0608    5.9130   12.5891 H       1  lig         0.1340
      3 H3         21.3013    4.9848   12.0040 H       1  lig         0.1475
      4 H4         24.5000    7.8026   12.3390 H       1  lig         0.1475
      5 H5         26.3163    3.5777   13.3231 H       1  lig         0.0877
      6 H6         25.0378    2.4127   13.1865 H       1  lig         0.0877
      7 H7         26.8381    1.9009   11.5857 H       1  lig         0.0966
      8 H8         27.6123    4.2048   11.3037 H       1  lig         0.4431
      9 H9         27.2773    3.5679    9.8086 H       1  lig         0.4431
     10 H10        26.1930    4.6101   10.5245 H       1  lig         0.4431
     11 H11        22.3773    8.2928   12.1233 H       1  lig         0.4214
     12 C1         23.2202    4.1412   12.3181 C.ar    1  lig        -0.0999
     13 C2         24.9983    5.7155   12.4681 C.ar    1  lig        -0.0999
     14 C3         22.3571    5.1881   12.1460 C.ar    1  lig        -0.1787
     15 C4         24.1301    6.7822   12.3352 C.ar    1  lig        -0.1787
     16 C5         24.5456    4.4013   12.4866 C.ar    1  lig        -0.1394
     17 C6         22.7795    6.4905   12.1843 C.ar    1  lig         0.1292
     18 C7         25.0659    2.1395   10.4681 C.2     1  lig         0.9321
     19 C8         25.5135    3.2455   12.6546 C.3     1  lig        -0.0452
     20 C9         26.1394    2.7096   11.3665 C.3     1  lig        -0.0740
     21 N1         26.8499    3.8148   10.7243 N.4     1  lig        -0.8252
     22 O1         24.6018    1.0649   10.8427 O.co2   1  lig        -0.7573
     23 O2         24.6870    2.6942    9.3968 O.co2   1  lig        -0.7573
     24 O3         21.9197    7.4113   11.9998 O.3     1  lig        -0.4913
@<TRIPOS>BOND
     1     1    12    1
     2     2    13    1
     3     3    14    1
     4     4    15    1
     5     5    19    1
     6     6    19    1
     7     7    20    1
     8     8    21    1
     9     9    21    1
    10    10    21    1
    11    11    24    1
    12    12    14   ar
    13    12    16   ar
    14    13    15   ar
    15    13    16   ar
    16    14    17   ar
    17    15    17   ar
    18    16    19    1
    19    17    24    1
    20    18    20    1
    21    18    22    1
    22    18    23    1
    23    19    20    1
    24    20    21    1
@<TRIPOS>SUBSTRUCTURE
     1 lig         1 TEMP              0 ****  ****    0 ROOT


########## Name:		ligand
########## HA_RMSDs:		13.2096
########## HA_RMSDh:		13.1413
########## HA_RMSDm:		11.3455
########## Cluster Size:	1
##########    Grid Score:          -17.274605
##########      Grid_vdw:          -14.010308
##########       Grid_es:           -3.264296
##########    Int_energy:            4.082771

@<TRIPOS>MOLECULE
ligand
 24 24 1 0 0
SMALL
No Charge or Current Charge


@<TRIPOS>ATOM
      1 H1          8.6747    8.3944   23.0213 H       1  lig         0.1340
      2 H2         12.2648   10.2211   24.4320 H       1  lig         0.1340
      3 H3          9.5828    8.4417   20.7581 H       1  lig         0.1475
      4 H4         13.1675   10.3176   22.1418 H       1  lig         0.1475
      5 H5          8.8692    8.7964   25.2355 H       1  lig         0.0877
      6 H6         10.4579    8.6269   25.9123 H       1  lig         0.0877
      7 H7         10.5326   11.2930   25.7210 H       1  lig         0.0966
      8 H8         10.5438    9.9552   27.7696 H       1  lig         0.4431
      9 H9          9.5303   11.2512   27.9846 H       1  lig         0.4431
     10 H10         8.8910    9.7459   27.6687 H       1  lig         0.4431
     11 H11        12.2627   10.2423   19.9012 H       1  lig         0.4214
     12 C1          9.6570    8.8240   22.8416 C.ar    1  lig        -0.0999
     13 C2         11.6701    9.8360   23.6070 C.ar    1  lig        -0.0999
     14 C3         10.1709    8.8468   21.5743 C.ar    1  lig        -0.1787
     15 C4         12.1823    9.9007   22.3253 C.ar    1  lig        -0.1787
     16 C5         10.4030    9.3252   23.8638 C.ar    1  lig        -0.1394
     17 C6         11.3928    9.4001   21.2967 C.ar    1  lig         0.1292
     18 C7          8.4354   11.3195   25.5022 C.2     1  lig         0.9321
     19 C8          9.8510    9.2825   25.2761 C.3     1  lig        -0.0452
     20 C9          9.6989   10.6356   25.9718 C.3     1  lig        -0.0740
     21 N1          9.6778   10.3939   27.4140 N.4     1  lig        -0.8252
     22 O1          8.0954   11.0360   24.3556 O.co2   1  lig        -0.7573
     23 O2          7.7864   12.1444   26.2073 O.co2   1  lig        -0.7573
     24 O3         11.8118    9.3701   20.0947 O.3     1  lig        -0.4913
@<TRIPOS>BOND
     1     1    12    1
     2     2    13    1
     3     3    14    1
     4     4    15    1
     5     5    19    1
     6     6    19    1
     7     7    20    1
     8     8    21    1
     9     9    21    1
    10    10    21    1
    11    11    24    1
    12    12    14   ar
    13    12    16   ar
    14    13    15   ar
    15    13    16   ar
    16    14    17   ar
    17    15    17   ar
    18    16    19    1
    19    17    24    1
    20    18    20    1
    21    18    22    1
    22    18    23    1
    23    19    20    1
    24    20    21    1
@<TRIPOS>SUBSTRUCTURE
     1 lig         1 TEMP              0 ****  ****    0 ROOT


########## Name:		ligand
########## HA_RMSDs:		11.6011
########## HA_RMSDh:		11.4562
########## HA_RMSDm:		9.3582
########## Cluster Size:	1
##########    Grid Score:          -17.267475
##########      Grid_vdw:          -16.229481
##########       Grid_es:           -1.037994
##########    Int_energy:            2.196018

@<TRIPOS>MOLECULE
ligand
 24 24 1 0 0
SMALL
No Charge or Current Charge


@<TRIPOS>ATOM
      1 H1         11.4520   11.3294   21.3015 H       1  lig         0.1340
      2 H2         11.8971    7.9034   23.8074 H       1  lig         0.1340
      3 H3         10.0022   10.0249   19.8368 H       1  lig         0.1475
      4 H4         10.4740    6.5658   22.3058 H       1  lig         0.1475
      5 H5         12.2916   11.5314   23.5661 H       1  lig         0.0877
      6 H6         12.5694   10.1616   24.5942 H       1  lig         0.0877
      7 H7         14.2916   10.4400   22.1164 H       1  lig         0.0966
      8 H8         14.4280    8.4873   23.5844 H       1  lig         0.4431
      9 H9         15.8307    9.3617   23.7284 H       1  lig         0.4431
     10 H10        14.6629    9.4727   24.9109 H       1  lig         0.4431
     11 H11         9.0607    8.2751   19.4717 H       1  lig         0.4214
     12 C1         11.2511   10.2857   21.5294 C.ar    1  lig        -0.0999
     13 C2         11.4791    8.3653   22.9160 C.ar    1  lig        -0.0999
     14 C3         10.4340    9.5534   20.7128 C.ar    1  lig        -0.1787
     15 C4         10.6876    7.6050   22.0766 C.ar    1  lig        -0.1787
     16 C5         11.7830    9.6919   22.6327 C.ar    1  lig        -0.1394
     17 C6         10.1727    8.2293   20.9466 C.ar    1  lig         0.1292
     18 C7         14.7632   11.8540   23.6082 C.2     1  lig         0.9321
     19 C8         12.6712   10.5029   23.5570 C.3     1  lig        -0.0452
     20 C9         14.1565   10.5326   23.1951 C.3     1  lig        -0.0740
     21 N1         14.8014    9.4077   23.8714 N.4     1  lig        -0.8252
     22 O1         14.3373   12.3035   24.6699 O.co2   1  lig        -0.7573
     23 O2         15.6169   12.4762   22.9133 O.co2   1  lig        -0.7573
     24 O3          9.3893    7.6174   20.1508 O.3     1  lig        -0.4913
@<TRIPOS>BOND
     1     1    12    1
     2     2    13    1
     3     3    14    1
     4     4    15    1
     5     5    19    1
     6     6    19    1
     7     7    20    1
     8     8    21    1
     9     9    21    1
    10    10    21    1
    11    11    24    1
    12    12    14   ar
    13    12    16   ar
    14    13    15   ar
    15    13    16   ar
    16    14    17   ar
    17    15    17   ar
    18    16    19    1
    19    17    24    1
    20    18    20    1
    21    18    22    1
    22    18    23    1
    23    19    20    1
    24    20    21    1
@<TRIPOS>SUBSTRUCTURE
     1 lig         1 TEMP              0 ****  ****    0 ROOT


########## Name:		ligand
########## HA_RMSDs:		10.2003
########## HA_RMSDh:		10.0920
########## HA_RMSDm:		8.9839
########## Cluster Size:	1
##########    Grid Score:          -17.264788
##########      Grid_vdw:          -14.601931
##########       Grid_es:           -2.662858
##########    Int_energy:            1.699339

@<TRIPOS>MOLECULE
ligand
 24 24 1 0 0
SMALL
No Charge or Current Charge


@<TRIPOS>ATOM
      1 H1         12.6977   12.3409   25.2495 H       1  lig         0.1340
      2 H2         15.4249   10.0336   22.9140 H       1  lig         0.1340
      3 H3         11.0183   12.0560   23.5039 H       1  lig         0.1475
      4 H4         13.7499    9.7841   21.1248 H       1  lig         0.1475
      5 H5         14.7160   11.8045   26.1510 H       1  lig         0.0877
      6 H6         15.5839   10.4054   25.6033 H       1  lig         0.0877
      7 H7         16.8670   11.9434   23.9806 H       1  lig         0.0966
      8 H8         17.7375   11.1766   26.1349 H       1  lig         0.4431
      9 H9         18.2307   12.7413   25.8868 H       1  lig         0.4431
     10 H10        16.9617   12.4289   26.9196 H       1  lig         0.4431
     11 H11        11.6985   11.0986   20.4591 H       1  lig         0.4214
     12 C1         12.9431   11.7841   24.3486 C.ar    1  lig        -0.0999
     13 C2         14.4446   10.4890   23.0331 C.ar    1  lig        -0.0999
     14 C3         12.0015   11.6182   23.3706 C.ar    1  lig        -0.1787
     15 C4         13.5142   10.3491   22.0210 C.ar    1  lig        -0.1787
     16 C5         14.1726   11.2247   24.1807 C.ar    1  lig        -0.1394
     17 C6         12.2732   10.9462   22.2084 C.ar    1  lig         0.1292
     18 C7         15.9677   13.6963   24.7326 C.2     1  lig         0.9321
     19 C8         15.2156   11.3835   25.2706 C.3     1  lig        -0.0452
     20 C9         16.4150   12.2647   24.9202 C.3     1  lig        -0.0740
     21 N1         17.3891   12.1412   26.0039 N.4     1  lig        -0.8252
     22 O1         15.6458   14.2724   25.7695 O.co2   1  lig        -0.7573
     23 O2         15.8934   14.2607   23.6036 O.co2   1  lig        -0.7573
     24 O3         11.3406   10.8187   21.3508 O.3     1  lig        -0.4913
@<TRIPOS>BOND
     1     1    12    1
     2     2    13    1
     3     3    14    1
     4     4    15    1
     5     5    19    1
     6     6    19    1
     7     7    20    1
     8     8    21    1
     9     9    21    1
    10    10    21    1
    11    11    24    1
    12    12    14   ar
    13    12    16   ar
    14    13    15   ar
    15    13    16   ar
    16    14    17   ar
    17    15    17   ar
    18    16    19    1
    19    17    24    1
    20    18    20    1
    21    18    22    1
    22    18    23    1
    23    19    20    1
    24    20    21    1
@<TRIPOS>SUBSTRUCTURE
     1 lig         1 TEMP              0 ****  ****    0 ROOT


########## Name:		ligand
########## HA_RMSDs:		11.3024
########## HA_RMSDh:		11.3024
########## HA_RMSDm:		9.4695
########## Cluster Size:	1
##########    Grid Score:          -17.245020
##########      Grid_vdw:          -17.902164
##########       Grid_es:            0.657145
##########    Int_energy:            2.025318

@<TRIPOS>MOLECULE
ligand
 24 24 1 0 0
SMALL
No Charge or Current Charge


@<TRIPOS>ATOM
      1 H1         12.5248   12.5772   24.3929 H       1  lig         0.1340
      2 H2          9.1301   10.2241   23.3187 H       1  lig         0.1340
      3 H3         11.3638   13.2583   26.4268 H       1  lig         0.1475
      4 H4          7.9322   10.9474   25.3462 H       1  lig         0.1475
      5 H5         10.9211   11.0487   21.6195 H       1  lig         0.0877
      6 H6         12.4437   11.6159   22.2281 H       1  lig         0.0877
      7 H7         11.3392    8.7932   22.6560 H       1  lig         0.0966
      8 H8         12.7688    9.6011   24.4700 H       1  lig         0.4431
      9 H9         13.6099    8.4738   23.5898 H       1  lig         0.4431
     10 H10        13.9232   10.0950   23.3704 H       1  lig         0.4431
     11 H11         8.1925   12.0652   27.2083 H       1  lig         0.4214
     12 C1         11.5172   12.2181   24.5865 C.ar    1  lig        -0.0999
     13 C2          9.6164   10.9072   24.0110 C.ar    1  lig        -0.0999
     14 C3         10.8659   12.5941   25.7289 C.ar    1  lig        -0.1787
     15 C4          8.9338   11.3123   25.1421 C.ar    1  lig        -0.1787
     16 C5         10.8916   11.3768   23.7183 C.ar    1  lig        -0.1394
     17 C6          9.5871   12.1869   26.0024 C.ar    1  lig         0.1292
     18 C7         12.7315    9.1608   21.1155 C.2     1  lig         0.9321
     19 C8         11.6154   10.9356   22.4603 C.3     1  lig        -0.0452
     20 C9         12.1468    9.5019   22.4670 C.3     1  lig        -0.0740
     21 N1         13.1479    9.4038   23.5285 N.4     1  lig        -0.8252
     22 O1         11.9563    9.3003   20.1720 O.co2   1  lig        -0.7573
     23 O2         13.9107    8.7339   20.9543 O.co2   1  lig        -0.7573
     24 O3          9.0519   12.5652   27.0941 O.3     1  lig        -0.4913
@<TRIPOS>BOND
     1     1    12    1
     2     2    13    1
     3     3    14    1
     4     4    15    1
     5     5    19    1
     6     6    19    1
     7     7    20    1
     8     8    21    1
     9     9    21    1
    10    10    21    1
    11    11    24    1
    12    12    14   ar
    13    12    16   ar
    14    13    15   ar
    15    13    16   ar
    16    14    17   ar
    17    15    17   ar
    18    16    19    1
    19    17    24    1
    20    18    20    1
    21    18    22    1
    22    18    23    1
    23    19    20    1
    24    20    21    1
@<TRIPOS>SUBSTRUCTURE
     1 lig         1 TEMP              0 ****  ****    0 ROOT


########## Name:		ligand
########## HA_RMSDs:		14.2814
########## HA_RMSDh:		14.2314
########## HA_RMSDm:		12.7411
########## Cluster Size:	1
##########    Grid Score:          -17.228336
##########      Grid_vdw:          -15.658410
##########       Grid_es:           -1.569926
##########    Int_energy:            2.652087

@<TRIPOS>MOLECULE
ligand
 24 24 1 0 0
SMALL
No Charge or Current Charge


@<TRIPOS>ATOM
      1 H1         21.8715    5.0208   12.7172 H       1  lig         0.1340
      2 H2         24.9446    7.0790   14.8469 H       1  lig         0.1340
      3 H3         21.7358    6.9004   11.1688 H       1  lig         0.1475
      4 H4         24.7779    9.0021   13.3163 H       1  lig         0.1475
      5 H5         23.7925    5.1625   15.8281 H       1  lig         0.0877
      6 H6         22.5169    4.3146   15.0129 H       1  lig         0.0877
      7 H7         24.2314    3.2604   13.4701 H       1  lig         0.0966
      8 H8         23.4727    2.1844   15.5325 H       1  lig         0.4431
      9 H9         25.0789    1.8340   15.3078 H       1  lig         0.4431
     10 H10        24.6340    2.9994   16.4116 H       1  lig         0.4431
     11 H11        22.4206    8.7155   10.6102 H       1  lig         0.4214
     12 C1         22.5091    5.8890   12.8634 C.ar    1  lig        -0.0999
     13 C2         24.2260    7.0514   14.0312 C.ar    1  lig        -0.0999
     14 C3         22.4389    6.9421   11.9934 C.ar    1  lig        -0.1787
     15 C4         24.1354    8.1378   13.1820 C.ar    1  lig        -0.1787
     16 C5         23.3998    5.9422   13.8913 C.ar    1  lig        -0.1394
     17 C6         23.2044    8.0667   12.1524 C.ar    1  lig         0.1292
     18 C7         25.8825    4.2399   14.3428 C.2     1  lig         0.9321
     19 C8         23.5013    4.7688   14.8472 C.3     1  lig        -0.0452
     20 C9         24.4867    3.6696   14.4487 C.3     1  lig        -0.0740
     21 N1         24.4095    2.6157   15.4596 N.4     1  lig        -0.8252
     22 O1         26.1787    4.6656   13.2285 O.co2   1  lig        -0.7573
     23 O2         26.7034    4.2558   15.3044 O.co2   1  lig        -0.7573
     24 O3         23.0954    8.9995   11.2926 O.3     1  lig        -0.4913
@<TRIPOS>BOND
     1     1    12    1
     2     2    13    1
     3     3    14    1
     4     4    15    1
     5     5    19    1
     6     6    19    1
     7     7    20    1
     8     8    21    1
     9     9    21    1
    10    10    21    1
    11    11    24    1
    12    12    14   ar
    13    12    16   ar
    14    13    15   ar
    15    13    16   ar
    16    14    17   ar
    17    15    17   ar
    18    16    19    1
    19    17    24    1
    20    18    20    1
    21    18    22    1
    22    18    23    1
    23    19    20    1
    24    20    21    1
@<TRIPOS>SUBSTRUCTURE
     1 lig         1 TEMP              0 ****  ****    0 ROOT


########## Name:		ligand
########## HA_RMSDs:		14.3094
########## HA_RMSDh:		14.2672
########## HA_RMSDm:		13.0113
########## Cluster Size:	1
##########    Grid Score:          -17.214203
##########      Grid_vdw:          -15.698897
##########       Grid_es:           -1.515306
##########    Int_energy:            1.263979

@<TRIPOS>MOLECULE
ligand
 24 24 1 0 0
SMALL
No Charge or Current Charge


@<TRIPOS>ATOM
      1 H1         22.1860    4.6831   12.8241 H       1  lig         0.1340
      2 H2         25.6047    6.5799   14.5357 H       1  lig         0.1340
      3 H3         21.7271    6.7235   11.5692 H       1  lig         0.1475
      4 H4         25.1187    8.6606   13.3095 H       1  lig         0.1475
      5 H5         24.0477    3.3937   13.8667 H       1  lig         0.0877
      6 H6         25.2747    4.1839   14.8051 H       1  lig         0.0877
      7 H7         22.3175    4.0482   15.5856 H       1  lig         0.0966
      8 H8         23.4989    6.0310   16.3978 H       1  lig         0.4431
      9 H9         23.2429    5.0026   17.6744 H       1  lig         0.4431
     10 H10        24.7484    5.0815   16.9661 H       1  lig         0.4431
     11 H11        22.3569    8.5739   11.0167 H       1  lig         0.4214
     12 C1         22.8323    5.5488   12.9443 C.ar    1  lig        -0.0999
     13 C2         24.7378    6.6235   13.8807 C.ar    1  lig        -0.0999
     14 C3         22.5805    6.6925   12.2377 C.ar    1  lig        -0.1787
     15 C4         24.4699    7.7972   13.2023 C.ar    1  lig        -0.1787
     16 C5         23.9101    5.5117   13.7749 C.ar    1  lig        -0.1394
     17 C6         23.3525    7.8154   12.3758 C.ar    1  lig         0.1292
     18 C7         23.6789    2.6524   16.3890 C.2     1  lig         0.9321
     19 C8         24.2108    4.2397   14.5446 C.3     1  lig        -0.0452
     20 C9         23.3844    4.0180   15.8119 C.3     1  lig        -0.0740
     21 N1         23.7195    5.0856   16.7535 N.4     1  lig        -0.8252
     22 O1         22.9850    1.7445   15.9364 O.co2   1  lig        -0.7573
     23 O2         24.5432    2.4480   17.2889 O.co2   1  lig        -0.7573
     24 O3         23.0657    8.8373   11.6724 O.3     1  lig        -0.4913
@<TRIPOS>BOND
     1     1    12    1
     2     2    13    1
     3     3    14    1
     4     4    15    1
     5     5    19    1
     6     6    19    1
     7     7    20    1
     8     8    21    1
     9     9    21    1
    10    10    21    1
    11    11    24    1
    12    12    14   ar
    13    12    16   ar
    14    13    15   ar
    15    13    16   ar
    16    14    17   ar
    17    15    17   ar
    18    16    19    1
    19    17    24    1
    20    18    20    1
    21    18    22    1
    22    18    23    1
    23    19    20    1
    24    20    21    1
@<TRIPOS>SUBSTRUCTURE
     1 lig         1 TEMP              0 ****  ****    0 ROOT


########## Name:		ligand
########## HA_RMSDs:		13.8835
########## HA_RMSDh:		13.8244
########## HA_RMSDm:		12.0082
########## Cluster Size:	1
##########    Grid Score:          -17.211731
##########      Grid_vdw:          -16.113163
##########       Grid_es:           -1.098567
##########    Int_energy:            2.592950

@<TRIPOS>MOLECULE
ligand
 24 24 1 0 0
SMALL
No Charge or Current Charge


@<TRIPOS>ATOM
      1 H1         21.8073    5.1568   12.8738 H       1  lig         0.1340
      2 H2         25.0121    7.1646   14.8522 H       1  lig         0.1340
      3 H3         21.7725    6.9342   11.2040 H       1  lig         0.1475
      4 H4         24.9491    8.9885   13.1974 H       1  lig         0.1475
      5 H5         22.7493    5.2242   15.8218 H       1  lig         0.0877
      6 H6         23.0184    4.0219   14.6000 H       1  lig         0.0877
      7 H7         25.5843    5.2205   15.1038 H       1  lig         0.0966
      8 H8         25.0789    2.9165   14.4536 H       1  lig         0.4431
      9 H9         25.9561    2.8930   15.8618 H       1  lig         0.4431
     10 H10        24.3089    2.6505   15.9104 H       1  lig         0.4431
     11 H11        22.4068    8.8094   10.6722 H       1  lig         0.4214
     12 C1         22.4963    5.9932   12.9599 C.ar    1  lig        -0.0999
     13 C2         24.2874    7.1259   14.0424 C.ar    1  lig        -0.0999
     14 C3         22.4827    6.9885   12.0219 C.ar    1  lig        -0.1787
     15 C4         24.2554    8.1570   13.1230 C.ar    1  lig        -0.1787
     16 C5         23.3959    6.0612   13.9792 C.ar    1  lig        -0.1394
     17 C6         23.3147    8.0735   12.1032 C.ar    1  lig         0.1292
     18 C7         24.8354    5.0506   17.0678 C.2     1  lig         0.9321
     19 C8         23.4342    4.9498   15.0109 C.3     1  lig        -0.0452
     20 C9         24.8074    4.6469   15.6114 C.3     1  lig        -0.0740
     21 N1         25.0606    3.2165   15.4429 N.4     1  lig        -0.8252
     22 O1         25.2178    6.2005   17.2733 O.co2   1  lig        -0.7573
     23 O2         24.5251    4.2703   18.0131 O.co2   1  lig        -0.7573
     24 O3         23.2552    8.9521   11.1835 O.3     1  lig        -0.4913
@<TRIPOS>BOND
     1     1    12    1
     2     2    13    1
     3     3    14    1
     4     4    15    1
     5     5    19    1
     6     6    19    1
     7     7    20    1
     8     8    21    1
     9     9    21    1
    10    10    21    1
    11    11    24    1
    12    12    14   ar
    13    12    16   ar
    14    13    15   ar
    15    13    16   ar
    16    14    17   ar
    17    15    17   ar
    18    16    19    1
    19    17    24    1
    20    18    20    1
    21    18    22    1
    22    18    23    1
    23    19    20    1
    24    20    21    1
@<TRIPOS>SUBSTRUCTURE
     1 lig         1 TEMP              0 ****  ****    0 ROOT


########## Name:		ligand
########## HA_RMSDs:		11.5899
########## HA_RMSDh:		11.5062
########## HA_RMSDm:		9.9615
########## Cluster Size:	1
##########    Grid Score:          -17.200527
##########      Grid_vdw:          -17.177034
##########       Grid_es:           -0.023493
##########    Int_energy:            2.381930

@<TRIPOS>MOLECULE
ligand
 24 24 1 0 0
SMALL
No Charge or Current Charge


@<TRIPOS>ATOM
      1 H1          9.1053   10.1005   21.9581 H       1  lig         0.1340
      2 H2         12.4759   11.3774   24.2436 H       1  lig         0.1340
      3 H3          7.6401   10.9315   23.7220 H       1  lig         0.1475
      4 H4         11.0038   12.1736   26.0514 H       1  lig         0.1475
      5 H5         11.2990   10.3547   20.9411 H       1  lig         0.0877
      6 H6         12.7156   10.7659   21.8547 H       1  lig         0.0877
      7 H7         11.8222    8.1554   21.0895 H       1  lig         0.0966
      8 H8         10.5299    8.1836   23.1670 H       1  lig         0.4431
      9 H9         11.7989    7.1292   23.3426 H       1  lig         0.4431
     10 H10        11.8828    8.6447   24.0288 H       1  lig         0.4431
     11 H11         7.5639   12.3087   25.3819 H       1  lig         0.4214
     12 C1          9.5340   10.5466   22.8519 C.ar    1  lig        -0.0999
     13 C2         11.3985   11.2731   24.1397 C.ar    1  lig        -0.0999
     14 C3          8.7146   11.0183   23.8401 C.ar    1  lig        -0.1787
     15 C4         10.5815   11.7166   25.1621 C.ar    1  lig        -0.1787
     16 C5         10.8817   10.6664   23.0007 C.ar    1  lig        -0.1394
     17 C6          9.2101   11.5650   24.9941 C.ar    1  lig         0.1292
     18 C7         13.6846    8.5447   21.9988 C.2     1  lig         0.9321
     19 C8         11.7976   10.1675   21.8993 C.3     1  lig        -0.0452
     20 C9         12.1802    8.6888   21.9713 C.3     1  lig        -0.0740
     21 N1         11.5622    8.1277   23.1721 N.4     1  lig        -0.8252
     22 O1         14.1837    8.5957   23.1208 O.co2   1  lig        -0.7573
     23 O2         14.3911    8.4142   20.9582 O.co2   1  lig        -0.7573
     24 O3          8.3848   11.9971   25.8621 O.3     1  lig        -0.4913
@<TRIPOS>BOND
     1     1    12    1
     2     2    13    1
     3     3    14    1
     4     4    15    1
     5     5    19    1
     6     6    19    1
     7     7    20    1
     8     8    21    1
     9     9    21    1
    10    10    21    1
    11    11    24    1
    12    12    14   ar
    13    12    16   ar
    14    13    15   ar
    15    13    16   ar
    16    14    17   ar
    17    15    17   ar
    18    16    19    1
    19    17    24    1
    20    18    20    1
    21    18    22    1
    22    18    23    1
    23    19    20    1
    24    20    21    1
@<TRIPOS>SUBSTRUCTURE
     1 lig         1 TEMP              0 ****  ****    0 ROOT


########## Name:		ligand
########## HA_RMSDs:		13.9901
########## HA_RMSDh:		13.9597
########## HA_RMSDm:		12.1108
########## Cluster Size:	1
##########    Grid Score:          -17.193451
##########      Grid_vdw:          -17.087601
##########       Grid_es:           -0.105851
##########    Int_energy:            2.081681

@<TRIPOS>MOLECULE
ligand
 24 24 1 0 0
SMALL
No Charge or Current Charge


@<TRIPOS>ATOM
      1 H1          9.4238    8.7557   20.3838 H       1  lig         0.1340
      2 H2          6.9021    8.9915   23.8191 H       1  lig         0.1340
      3 H3         10.8047   10.5348   21.3201 H       1  lig         0.1475
      4 H4          8.2638   10.8229   24.7471 H       1  lig         0.1475
      5 H5          6.3657    7.5078   22.1429 H       1  lig         0.0877
      6 H6          6.7529    7.9639   20.5142 H       1  lig         0.0877
      7 H7          8.8881    6.4692   20.7726 H       1  lig         0.0966
      8 H8          6.8930    5.8997   19.4758 H       1  lig         0.4431
      9 H9          7.4378    4.5335   20.2436 H       1  lig         0.4431
     10 H10         6.1245    5.3564   20.8542 H       1  lig         0.4431
     11 H11        10.0280   12.0487   24.3591 H       1  lig         0.4214
     12 C1          9.1551    9.2040   21.3369 C.ar    1  lig        -0.0999
     13 C2          7.7671    9.3477   23.2645 C.ar    1  lig        -0.0999
     14 C3          9.9308   10.1981   21.8669 C.ar    1  lig        -0.1787
     15 C4          8.5206   10.3798   23.7901 C.ar    1  lig        -0.1787
     16 C5          8.0646    8.7785   22.0316 C.ar    1  lig        -0.1394
     17 C6          9.6173   10.8091   23.0521 C.ar    1  lig         0.1292
     18 C7          8.1881    5.6667   22.5928 C.2     1  lig         0.9321
     19 C8          7.2119    7.6603   21.4629 C.3     1  lig        -0.0452
     20 C9          7.9217    6.3217   21.2569 C.3     1  lig        -0.0740
     21 N1          7.0669    5.4911   20.4095 N.4     1  lig        -0.8252
     22 O1          9.1456    6.1300   23.2086 O.co2   1  lig        -0.7573
     23 O2          7.5108    4.6976   23.0410 O.co2   1  lig        -0.7573
     24 O3         10.3964   11.7160   23.4900 O.3     1  lig        -0.4913
@<TRIPOS>BOND
     1     1    12    1
     2     2    13    1
     3     3    14    1
     4     4    15    1
     5     5    19    1
     6     6    19    1
     7     7    20    1
     8     8    21    1
     9     9    21    1
    10    10    21    1
    11    11    24    1
    12    12    14   ar
    13    12    16   ar
    14    13    15   ar
    15    13    16   ar
    16    14    17   ar
    17    15    17   ar
    18    16    19    1
    19    17    24    1
    20    18    20    1
    21    18    22    1
    22    18    23    1
    23    19    20    1
    24    20    21    1
@<TRIPOS>SUBSTRUCTURE
     1 lig         1 TEMP              0 ****  ****    0 ROOT


########## Name:		ligand
########## HA_RMSDs:		12.6527
########## HA_RMSDh:		12.5571
########## HA_RMSDm:		8.2131
########## Cluster Size:	1
##########    Grid Score:          -17.167028
##########      Grid_vdw:          -18.996758
##########       Grid_es:            1.829729
##########    Int_energy:            1.288949

@<TRIPOS>MOLECULE
ligand
 24 24 1 0 0
SMALL
No Charge or Current Charge


@<TRIPOS>ATOM
      1 H1         15.4998   17.9692   27.8014 H       1  lig         0.1340
      2 H2         15.7857   13.8583   28.9125 H       1  lig         0.1340
      3 H3         15.9399   17.3369   25.4872 H       1  lig         0.1475
      4 H4         16.2802   13.2184   26.5855 H       1  lig         0.1475
      5 H5         15.6227   15.4912   30.5771 H       1  lig         0.0877
      6 H6         16.0060   17.1552   30.2692 H       1  lig         0.0877
      7 H7         13.2257   16.3281   29.4903 H       1  lig         0.0966
      8 H8         14.0779   18.6169   29.3407 H       1  lig         0.4431
      9 H9         12.8849   18.5662   30.4928 H       1  lig         0.4431
     10 H10        14.4836   18.5956   30.9596 H       1  lig         0.4431
     11 H11        15.8901   15.7024   24.1171 H       1  lig         0.4214
     12 C1         15.6751   16.9263   27.5497 C.ar    1  lig        -0.0999
     13 C2         15.8315   14.6277   28.1454 C.ar    1  lig        -0.0999
     14 C3         15.9168   16.5682   26.2519 C.ar    1  lig        -0.1787
     15 C4         16.1161   14.2596   26.8443 C.ar    1  lig        -0.1787
     16 C5         15.6379   15.9567   28.5043 C.ar    1  lig        -0.1394
     17 C6         16.1678   15.2707   25.8920 C.ar    1  lig         0.1292
     18 C7         13.4770   16.1495   31.5765 C.2     1  lig         0.9321
     19 C8         15.3471   16.3416   29.9425 C.3     1  lig        -0.0452
     20 C9         13.9003   16.7312   30.2472 C.3     1  lig        -0.0740
     21 N1         13.8241   18.1917   30.2483 N.4     1  lig        -0.8252
     22 O1         12.9854   15.0249   31.5102 O.co2   1  lig        -0.7573
     23 O2         13.5829   16.7692   32.6735 O.co2   1  lig        -0.7573
     24 O3         16.3683   15.0120   24.6615 O.3     1  lig        -0.4913
@<TRIPOS>BOND
     1     1    12    1
     2     2    13    1
     3     3    14    1
     4     4    15    1
     5     5    19    1
     6     6    19    1
     7     7    20    1
     8     8    21    1
     9     9    21    1
    10    10    21    1
    11    11    24    1
    12    12    14   ar
    13    12    16   ar
    14    13    15   ar
    15    13    16   ar
    16    14    17   ar
    17    15    17   ar
    18    16    19    1
    19    17    24    1
    20    18    20    1
    21    18    22    1
    22    18    23    1
    23    19    20    1
    24    20    21    1
@<TRIPOS>SUBSTRUCTURE
     1 lig         1 TEMP              0 ****  ****    0 ROOT


########## Name:		ligand
########## HA_RMSDs:		12.4576
########## HA_RMSDh:		12.3920
########## HA_RMSDm:		8.9470
########## Cluster Size:	1
##########    Grid Score:          -17.164444
##########      Grid_vdw:          -14.794275
##########       Grid_es:           -2.370168
##########    Int_energy:            1.271411

@<TRIPOS>MOLECULE
ligand
 24 24 1 0 0
SMALL
No Charge or Current Charge


@<TRIPOS>ATOM
      1 H1         17.9959   15.6210   28.4033 H       1  lig         0.1340
      2 H2         13.7699   15.0822   28.6610 H       1  lig         0.1340
      3 H3         17.9352   14.7269   26.1350 H       1  lig         0.1475
      4 H4         13.7085   14.1317   26.3890 H       1  lig         0.1475
      5 H5         14.9273   15.8078   30.5274 H       1  lig         0.0877
      6 H6         16.5973   15.3818   30.7280 H       1  lig         0.0877
      7 H7         16.9137   17.7422   29.3563 H       1  lig         0.0966
      8 H8         17.8886   17.0845   31.5020 H       1  lig         0.4431
      9 H9         17.2672   18.6163   31.6456 H       1  lig         0.4431
     10 H10        16.4235   17.3209   32.2657 H       1  lig         0.4431
     11 H11        16.8482   13.9107   24.6398 H       1  lig         0.4214
     12 C1         17.0516   15.2927   27.9765 C.ar    1  lig        -0.0999
     13 C2         14.6942   14.9905   28.0955 C.ar    1  lig        -0.0999
     14 C3         17.0138   14.7960   26.7028 C.ar    1  lig        -0.1787
     15 C4         14.6504   14.4500   26.8245 C.ar    1  lig        -0.1787
     16 C5         15.8910   15.3862   28.6816 C.ar    1  lig        -0.1394
     17 C6         15.8517   14.3474   26.1331 C.ar    1  lig         0.1292
     18 C7         15.0331   18.2849   30.1409 C.2     1  lig         0.9321
     19 C8         15.9197   15.9579   30.0864 C.3     1  lig        -0.0452
     20 C9         16.2845   17.4388   30.1943 C.3     1  lig        -0.0740
     21 N1         17.0103   17.6275   31.4498 N.4     1  lig        -0.8252
     22 O1         14.6688   18.5896   29.0073 O.co2   1  lig        -0.7573
     23 O2         14.4169   18.6832   31.1707 O.co2   1  lig        -0.7573
     24 O3         15.8924   13.9132   24.9368 O.3     1  lig        -0.4913
@<TRIPOS>BOND
     1     1    12    1
     2     2    13    1
     3     3    14    1
     4     4    15    1
     5     5    19    1
     6     6    19    1
     7     7    20    1
     8     8    21    1
     9     9    21    1
    10    10    21    1
    11    11    24    1
    12    12    14   ar
    13    12    16   ar
    14    13    15   ar
    15    13    16   ar
    16    14    17   ar
    17    15    17   ar
    18    16    19    1
    19    17    24    1
    20    18    20    1
    21    18    22    1
    22    18    23    1
    23    19    20    1
    24    20    21    1
@<TRIPOS>SUBSTRUCTURE
     1 lig         1 TEMP              0 ****  ****    0 ROOT


########## Name:		ligand
########## HA_RMSDs:		11.4393
########## HA_RMSDh:		11.3544
########## HA_RMSDm:		8.2101
########## Cluster Size:	1
##########    Grid Score:          -17.154795
##########      Grid_vdw:          -13.073844
##########       Grid_es:           -4.080951
##########    Int_energy:            2.742308

@<TRIPOS>MOLECULE
ligand
 24 24 1 0 0
SMALL
No Charge or Current Charge


@<TRIPOS>ATOM
      1 H1         17.3384   14.9725   27.0376 H       1  lig         0.1340
      2 H2         13.7854   12.6274   27.3416 H       1  lig         0.1340
      3 H3         17.4724   14.3971   24.6712 H       1  lig         0.1475
      4 H4         13.9424   12.0019   24.9640 H       1  lig         0.1475
      5 H5         14.5968   13.6676   29.2260 H       1  lig         0.0877
      6 H6         16.3218   13.7860   29.3709 H       1  lig         0.0877
      7 H7         16.2673   16.2020   28.8728 H       1  lig         0.0966
      8 H8         15.7962   15.4394   31.1495 H       1  lig         0.4431
      9 H9         14.8989   16.8019   30.8471 H       1  lig         0.4431
     10 H10        14.1714   15.3045   30.7922 H       1  lig         0.4431
     11 H11        16.6464   13.4551   23.0861 H       1  lig         0.4214
     12 C1         16.5919   14.3161   26.5975 C.ar    1  lig        -0.0999
     13 C2         14.6086   13.0092   26.7423 C.ar    1  lig        -0.0999
     14 C3         16.6616   13.9962   25.2696 C.ar    1  lig        -0.1787
     15 C4         14.6916   12.6473   25.4114 C.ar    1  lig        -0.1787
     16 C5         15.5671   13.8179   27.3421 C.ar    1  lig        -0.1394
     17 C6         15.7583   13.1535   24.6780 C.ar    1  lig         0.1292
     18 C7         14.2508   16.2890   28.2620 C.2     1  lig         0.9321
     19 C8         15.4685   14.1864   28.8102 C.3     1  lig        -0.0452
     20 C9         15.3404   15.6795   29.1140 C.3     1  lig        -0.0740
     21 N1         15.0520   15.8196   30.5408 N.4     1  lig        -0.8252
     22 O1         13.1913   15.6659   28.2625 O.co2   1  lig        -0.7573
     23 O2         14.4098   17.3368   27.5724 O.co2   1  lig        -0.7573
     24 O3         15.8784   12.9151   23.4330 O.3     1  lig        -0.4913
@<TRIPOS>BOND
     1     1    12    1
     2     2    13    1
     3     3    14    1
     4     4    15    1
     5     5    19    1
     6     6    19    1
     7     7    20    1
     8     8    21    1
     9     9    21    1
    10    10    21    1
    11    11    24    1
    12    12    14   ar
    13    12    16   ar
    14    13    15   ar
    15    13    16   ar
    16    14    17   ar
    17    15    17   ar
    18    16    19    1
    19    17    24    1
    20    18    20    1
    21    18    22    1
    22    18    23    1
    23    19    20    1
    24    20    21    1
@<TRIPOS>SUBSTRUCTURE
     1 lig         1 TEMP              0 ****  ****    0 ROOT


########## Name:		ligand
########## HA_RMSDs:		13.4757
########## HA_RMSDh:		13.4364
########## HA_RMSDm:		11.3971
########## Cluster Size:	1
##########    Grid Score:          -17.152859
##########      Grid_vdw:          -16.842995
##########       Grid_es:           -0.309864
##########    Int_energy:            1.239711

@<TRIPOS>MOLECULE
ligand
 24 24 1 0 0
SMALL
No Charge or Current Charge


@<TRIPOS>ATOM
      1 H1          8.4553    9.8599   24.5569 H       1  lig         0.1340
      2 H2          8.6884    8.7810   20.4342 H       1  lig         0.1340
      3 H3          6.5382    8.3718   24.8006 H       1  lig         0.1475
      4 H4          6.7220    7.3146   20.6615 H       1  lig         0.1475
      5 H5         10.1666   10.3392   21.2640 H       1  lig         0.0877
      6 H6          9.6109   11.3829   22.5338 H       1  lig         0.0877
      7 H7         10.8912    9.1112   23.7956 H       1  lig         0.0966
      8 H8         10.6816   11.3963   24.6449 H       1  lig         0.4431
      9 H9         12.2911   10.9992   24.5741 H       1  lig         0.4431
     10 H10        11.6273   11.9714   23.3956 H       1  lig         0.4431
     11 H11         5.2635    6.5717   22.1052 H       1  lig         0.4214
     12 C1          8.0820    9.3132   23.6947 C.ar    1  lig        -0.0999
     13 C2          8.1978    8.6918   21.4006 C.ar    1  lig        -0.0999
     14 C3          7.0105    8.4739   23.8297 C.ar    1  lig        -0.1787
     15 C4          7.0916    7.8719   21.5164 C.ar    1  lig        -0.1787
     16 C5          8.6770    9.4307   22.4761 C.ar    1  lig        -0.1394
     17 C6          6.4905    7.7845   22.7665 C.ar    1  lig         0.1292
     18 C7         12.2533    9.5860   22.2574 C.2     1  lig         0.9321
     19 C8          9.8805   10.3411   22.3223 C.3     1  lig        -0.0452
     20 C9         11.1048    9.9724   23.1609 C.3     1  lig        -0.0740
     21 N1         11.4379   11.1280   23.9930 N.4     1  lig        -0.8252
     22 O1         12.2044    8.4343   21.8309 O.co2   1  lig        -0.7573
     23 O2         13.2120   10.3618   21.9787 O.co2   1  lig        -0.7573
     24 O3          5.5016    7.0095   22.9731 O.3     1  lig        -0.4913
@<TRIPOS>BOND
     1     1    12    1
     2     2    13    1
     3     3    14    1
     4     4    15    1
     5     5    19    1
     6     6    19    1
     7     7    20    1
     8     8    21    1
     9     9    21    1
    10    10    21    1
    11    11    24    1
    12    12    14   ar
    13    12    16   ar
    14    13    15   ar
    15    13    16   ar
    16    14    17   ar
    17    15    17   ar
    18    16    19    1
    19    17    24    1
    20    18    20    1
    21    18    22    1
    22    18    23    1
    23    19    20    1
    24    20    21    1
@<TRIPOS>SUBSTRUCTURE
     1 lig         1 TEMP              0 ****  ****    0 ROOT


########## Name:		ligand
########## HA_RMSDs:		13.4664
########## HA_RMSDh:		13.4293
########## HA_RMSDm:		11.2164
########## Cluster Size:	1
##########    Grid Score:          -17.139246
##########      Grid_vdw:          -15.460207
##########       Grid_es:           -1.679038
##########    Int_energy:            2.608495

@<TRIPOS>MOLECULE
ligand
 24 24 1 0 0
SMALL
No Charge or Current Charge


@<TRIPOS>ATOM
      1 H1         11.1132   11.5267   23.9617 H       1  lig         0.1340
      2 H2          7.5308    9.3645   23.1210 H       1  lig         0.1340
      3 H3         11.9743   10.8796   21.7734 H       1  lig         0.1475
      4 H4          8.4145    8.6659   20.9301 H       1  lig         0.1475
      5 H5          9.4691   11.5394   25.5114 H       1  lig         0.0877
      6 H6          7.8370   11.5069   24.9233 H       1  lig         0.0877
      7 H7          7.8346    8.9594   25.4973 H       1  lig         0.0966
      8 H8          6.7201   10.7093   26.7945 H       1  lig         0.4431
      9 H9          7.3794    9.6058   27.8436 H       1  lig         0.4431
     10 H10         8.1464   11.0618   27.5866 H       1  lig         0.4431
     11 H11        10.0497    9.1320   19.5013 H       1  lig         0.4214
     12 C1         10.5147   10.8949   23.3103 C.ar    1  lig        -0.0999
     13 C2          8.5231    9.6894   22.8174 C.ar    1  lig        -0.0999
     14 C3         10.9929   10.5350   22.0804 C.ar    1  lig        -0.1787
     15 C4          9.0126    9.2868   21.5895 C.ar    1  lig        -0.1787
     16 C5          9.2785   10.4675   23.6870 C.ar    1  lig        -0.1394
     17 C6         10.2852    9.7205   21.2367 C.ar    1  lig         0.1292
     18 C7          9.6838    9.1036   26.5007 C.2     1  lig         0.9321
     19 C8          8.7302   10.8812   25.0395 C.3     1  lig        -0.0452
     20 C9          8.4058    9.7392   26.0032 C.3     1  lig        -0.0740
     21 N1          7.6164   10.2952   27.1015 N.4     1  lig        -0.8252
     22 O1         10.3053    8.4698   25.6507 O.co2   1  lig        -0.7573
     23 O2         10.0794    9.1804   27.6992 O.co2   1  lig        -0.7573
     24 O3         10.7887    9.4418   20.1009 O.3     1  lig        -0.4913
@<TRIPOS>BOND
     1     1    12    1
     2     2    13    1
     3     3    14    1
     4     4    15    1
     5     5    19    1
     6     6    19    1
     7     7    20    1
     8     8    21    1
     9     9    21    1
    10    10    21    1
    11    11    24    1
    12    12    14   ar
    13    12    16   ar
    14    13    15   ar
    15    13    16   ar
    16    14    17   ar
    17    15    17   ar
    18    16    19    1
    19    17    24    1
    20    18    20    1
    21    18    22    1
    22    18    23    1
    23    19    20    1
    24    20    21    1
@<TRIPOS>SUBSTRUCTURE
     1 lig         1 TEMP              0 ****  ****    0 ROOT


########## Name:		ligand
########## HA_RMSDs:		12.5325
########## HA_RMSDh:		12.4171
########## HA_RMSDm:		10.3640
########## Cluster Size:	1
##########    Grid Score:          -17.135410
##########      Grid_vdw:          -13.828362
##########       Grid_es:           -3.307048
##########    Int_energy:            3.518912

@<TRIPOS>MOLECULE
ligand
 24 24 1 0 0
SMALL
No Charge or Current Charge


@<TRIPOS>ATOM
      1 H1         10.5192    7.1628   22.2596 H       1  lig         0.1340
      2 H2         12.0778   10.2839   24.7182 H       1  lig         0.1340
      3 H3         11.6302    5.5299   23.6907 H       1  lig         0.1475
      4 H4         13.2435    8.6428   26.1384 H       1  lig         0.1475
      5 H5          9.6101    9.3931   22.1573 H       1  lig         0.0877
      6 H6         10.2266   10.7128   23.1002 H       1  lig         0.0877
      7 H7         11.2085   11.4157   21.1696 H       1  lig         0.0966
      8 H8          9.8300    9.8162   19.9334 H       1  lig         0.4431
      9 H9         11.3369    9.8685   19.2409 H       1  lig         0.4431
     10 H10        10.9296    8.5983   20.2386 H       1  lig         0.4431
     11 H11        13.8677    6.4427   26.1181 H       1  lig         0.4214
     12 C1         11.1177    7.5005   23.1018 C.ar    1  lig        -0.0999
     13 C2         11.9914    9.2241   24.4906 C.ar    1  lig        -0.0999
     14 C3         11.7373    6.5868   23.9092 C.ar    1  lig        -0.1787
     15 C4         12.6543    8.3118   25.2890 C.ar    1  lig        -0.1787
     16 C5         11.2477    8.8253   23.3858 C.ar    1  lig        -0.1394
     17 C6         12.5214    6.9664   24.9662 C.ar    1  lig         0.1292
     18 C7         12.8121   10.0888   21.5083 C.2     1  lig         0.9321
     19 C8         10.5446    9.8449   22.5099 C.3     1  lig        -0.0452
     20 C9         11.3363   10.3400   21.2991 C.3     1  lig        -0.0740
     21 N1         10.8311    9.6376   20.1201 N.4     1  lig        -0.8252
     22 O1         13.4261   11.0292   22.0075 O.co2   1  lig        -0.7573
     23 O2         13.3906    9.0158   21.1723 O.co2   1  lig        -0.7573
     24 O3         13.0530    6.0578   25.6825 O.3     1  lig        -0.4913
@<TRIPOS>BOND
     1     1    12    1
     2     2    13    1
     3     3    14    1
     4     4    15    1
     5     5    19    1
     6     6    19    1
     7     7    20    1
     8     8    21    1
     9     9    21    1
    10    10    21    1
    11    11    24    1
    12    12    14   ar
    13    12    16   ar
    14    13    15   ar
    15    13    16   ar
    16    14    17   ar
    17    15    17   ar
    18    16    19    1
    19    17    24    1
    20    18    20    1
    21    18    22    1
    22    18    23    1
    23    19    20    1
    24    20    21    1
@<TRIPOS>SUBSTRUCTURE
     1 lig         1 TEMP              0 ****  ****    0 ROOT


########## Name:		ligand
########## HA_RMSDs:		14.0347
########## HA_RMSDh:		14.0137
########## HA_RMSDm:		12.4628
########## Cluster Size:	1
##########    Grid Score:          -17.130842
##########      Grid_vdw:          -16.554310
##########       Grid_es:           -0.576532
##########    Int_energy:            2.066681

@<TRIPOS>MOLECULE
ligand
 24 24 1 0 0
SMALL
No Charge or Current Charge


@<TRIPOS>ATOM
      1 H1         10.2989    8.2730   21.7661 H       1  lig         0.1340
      2 H2          7.1013    8.1410   24.5899 H       1  lig         0.1340
      3 H3         10.5799   10.6470   22.2497 H       1  lig         0.1475
      4 H4          7.3468   10.5494   25.0464 H       1  lig         0.1475
      5 H5          9.4633    6.2017   22.4885 H       1  lig         0.0877
      6 H6          8.3104    6.0285   23.7735 H       1  lig         0.0877
      7 H7          6.4302    6.4811   22.2073 H       1  lig         0.0966
      8 H8          7.3240    4.2160   22.4470 H       1  lig         0.4431
      9 H9          6.8269    4.4299   20.8785 H       1  lig         0.4431
     10 H10         8.4489    4.5089   21.2491 H       1  lig         0.4431
     11 H11         9.0071   12.1704   24.8181 H       1  lig         0.4214
     12 C1          9.6418    8.7606   22.4818 C.ar    1  lig        -0.0999
     13 C2          7.8669    8.7085   24.0659 C.ar    1  lig        -0.0999
     14 C3          9.8007   10.0905   22.7589 C.ar    1  lig        -0.1787
     15 C4          7.9923   10.0601   24.3240 C.ar    1  lig        -0.1787
     16 C5          8.6685    8.0644   23.1305 C.ar    1  lig        -0.1394
     17 C6          8.9808   10.7522   23.6342 C.ar    1  lig         0.1292
     18 C7          7.6279    7.0023   20.5518 C.2     1  lig         0.9321
     19 C8          8.5003    6.5838   22.8470 C.3     1  lig        -0.0452
     20 C9          7.4195    6.2202   21.8283 C.3     1  lig        -0.0740
     21 N1          7.4944    4.7783   21.5962 N.4     1  lig        -0.8252
     22 O1          6.7339    7.8042   20.2906 O.co2   1  lig        -0.7573
     23 O2          8.6200    6.8343   19.7860 O.co2   1  lig        -0.7573
     24 O3          9.2005   11.9871   23.8534 O.3     1  lig        -0.4913
@<TRIPOS>BOND
     1     1    12    1
     2     2    13    1
     3     3    14    1
     4     4    15    1
     5     5    19    1
     6     6    19    1
     7     7    20    1
     8     8    21    1
     9     9    21    1
    10    10    21    1
    11    11    24    1
    12    12    14   ar
    13    12    16   ar
    14    13    15   ar
    15    13    16   ar
    16    14    17   ar
    17    15    17   ar
    18    16    19    1
    19    17    24    1
    20    18    20    1
    21    18    22    1
    22    18    23    1
    23    19    20    1
    24    20    21    1
@<TRIPOS>SUBSTRUCTURE
     1 lig         1 TEMP              0 ****  ****    0 ROOT


########## Name:		ligand
########## HA_RMSDs:		11.9148
########## HA_RMSDh:		11.8253
########## HA_RMSDm:		10.1855
########## Cluster Size:	1
##########    Grid Score:          -17.130564
##########      Grid_vdw:          -13.680914
##########       Grid_es:           -3.449651
##########    Int_energy:            1.436622

@<TRIPOS>MOLECULE
ligand
 24 24 1 0 0
SMALL
No Charge or Current Charge


@<TRIPOS>ATOM
      1 H1         10.2541   11.7054   25.4271 H       1  lig         0.1340
      2 H2         14.3983   11.0878   24.6149 H       1  lig         0.1340
      3 H3          9.7653   11.2649   23.0785 H       1  lig         0.1475
      4 H4         13.9171   10.6910   22.2316 H       1  lig         0.1475
      5 H5         11.7142   11.7236   27.1682 H       1  lig         0.0877
      6 H6         13.2142   10.8581   27.0620 H       1  lig         0.0877
      7 H7         13.6487   13.5350   26.0082 H       1  lig         0.0966
      8 H8         15.2936   12.0237   27.0068 H       1  lig         0.4431
      9 H9         15.2628   13.4324   27.8829 H       1  lig         0.4431
     10 H10        14.4897   12.0782   28.4685 H       1  lig         0.4431
     11 H11        11.9867   11.3483   20.7088 H       1  lig         0.4214
     12 C1         11.0659   11.4908   24.7368 C.ar    1  lig        -0.0999
     13 C2         13.3706   11.1349   24.2627 C.ar    1  lig        -0.0999
     14 C3         10.7942   11.2380   23.4203 C.ar    1  lig        -0.1787
     15 C4         13.1116   10.9175   22.9229 C.ar    1  lig        -0.1787
     16 C5         12.3580   11.4466   25.1627 C.ar    1  lig        -0.1394
     17 C6         11.7863   10.9876   22.5098 C.ar    1  lig         0.1292
     18 C7         12.5908   13.8999   27.7956 C.2     1  lig         0.9321
     19 C8         12.6666   11.7022   26.6257 C.3     1  lig        -0.0452
     20 C9         13.4316   12.9910   26.9287 C.3     1  lig        -0.0740
     21 N1         14.6825   12.6204   27.5894 N.4     1  lig        -0.8252
     22 O1         11.6098   14.3811   27.2327 O.co2   1  lig        -0.7573
     23 O2         12.8772   14.1793   28.9950 O.co2   1  lig        -0.7573
     24 O3         11.4546   10.7453   21.3046 O.3     1  lig        -0.4913
@<TRIPOS>BOND
     1     1    12    1
     2     2    13    1
     3     3    14    1
     4     4    15    1
     5     5    19    1
     6     6    19    1
     7     7    20    1
     8     8    21    1
     9     9    21    1
    10    10    21    1
    11    11    24    1
    12    12    14   ar
    13    12    16   ar
    14    13    15   ar
    15    13    16   ar
    16    14    17   ar
    17    15    17   ar
    18    16    19    1
    19    17    24    1
    20    18    20    1
    21    18    22    1
    22    18    23    1
    23    19    20    1
    24    20    21    1
@<TRIPOS>SUBSTRUCTURE
     1 lig         1 TEMP              0 ****  ****    0 ROOT


########## Name:		ligand
########## HA_RMSDs:		9.4628
########## HA_RMSDh:		9.4320
########## HA_RMSDm:		7.7147
########## Cluster Size:	1
##########    Grid Score:          -17.122967
##########      Grid_vdw:          -14.603315
##########       Grid_es:           -2.519652
##########    Int_energy:            2.612004

@<TRIPOS>MOLECULE
ligand
 24 24 1 0 0
SMALL
No Charge or Current Charge


@<TRIPOS>ATOM
      1 H1         15.7065   12.0463   27.2353 H       1  lig         0.1340
      2 H2         16.7849   15.3152   24.7121 H       1  lig         0.1340
      3 H3         14.3269   13.5657   28.5532 H       1  lig         0.1475
      4 H4         15.4331   16.8651   26.0684 H       1  lig         0.1475
      5 H5         17.7228   13.2471   24.3218 H       1  lig         0.0877
      6 H6         17.9919   12.1983   25.6777 H       1  lig         0.0877
      7 H7         15.9653   10.8597   25.0801 H       1  lig         0.0966
      8 H8         18.1505   10.3423   24.1086 H       1  lig         0.4431
      9 H9         16.9761   10.0202   22.9816 H       1  lig         0.4431
     10 H10        17.8756   11.4169   22.8614 H       1  lig         0.4431
     11 H11        13.4208   15.4223   28.6350 H       1  lig         0.4214
     12 C1         15.6604   13.1001   26.9728 C.ar    1  lig        -0.0999
     13 C2         16.2423   14.9357   25.5747 C.ar    1  lig        -0.0999
     14 C3         14.8832   13.9534   27.7068 C.ar    1  lig        -0.1787
     15 C4         15.4922   15.8141   26.3331 C.ar    1  lig        -0.1787
     16 C5         16.3493   13.5898   25.9059 C.ar    1  lig        -0.1394
     17 C6         14.8141   15.2927   27.4286 C.ar    1  lig         0.1292
     18 C7         15.3312   12.1137   23.5077 C.2     1  lig         0.9321
     19 C8         17.1950   12.6464   25.0718 C.3     1  lig        -0.0452
     20 C9         16.4357   11.5280   24.3573 C.3     1  lig        -0.0740
     21 N1         17.3997   10.7816   23.5498 N.4     1  lig        -0.8252
     22 O1         14.2728   12.3035   24.1031 O.co2   1  lig        -0.7573
     23 O2         15.4588   12.3637   22.2748 O.co2   1  lig        -0.7573
     24 O3         14.0563   16.0217   28.1467 O.3     1  lig        -0.4913
@<TRIPOS>BOND
     1     1    12    1
     2     2    13    1
     3     3    14    1
     4     4    15    1
     5     5    19    1
     6     6    19    1
     7     7    20    1
     8     8    21    1
     9     9    21    1
    10    10    21    1
    11    11    24    1
    12    12    14   ar
    13    12    16   ar
    14    13    15   ar
    15    13    16   ar
    16    14    17   ar
    17    15    17   ar
    18    16    19    1
    19    17    24    1
    20    18    20    1
    21    18    22    1
    22    18    23    1
    23    19    20    1
    24    20    21    1
@<TRIPOS>SUBSTRUCTURE
     1 lig         1 TEMP              0 ****  ****    0 ROOT


########## Name:		ligand
########## HA_RMSDs:		12.5222
########## HA_RMSDh:		12.4718
########## HA_RMSDm:		10.7651
########## Cluster Size:	1
##########    Grid Score:          -17.113970
##########      Grid_vdw:          -16.628786
##########       Grid_es:           -0.485183
##########    Int_energy:            2.234537

@<TRIPOS>MOLECULE
ligand
 24 24 1 0 0
SMALL
No Charge or Current Charge


@<TRIPOS>ATOM
      1 H1          8.6519    9.2981   24.3267 H       1  lig         0.1340
      2 H2         11.6100    8.6292   21.3238 H       1  lig         0.1340
      3 H3          6.9194    8.9808   22.6395 H       1  lig         0.1475
      4 H4          9.8664    8.3571   19.6048 H       1  lig         0.1475
      5 H5         10.8692    9.6919   24.8357 H       1  lig         0.0877
      6 H6         11.6481    8.2143   24.3660 H       1  lig         0.0877
      7 H7         12.9441    9.5814   22.5924 H       1  lig         0.0966
      8 H8         13.8610    8.8723   24.7472 H       1  lig         0.4431
      9 H9         14.4315   10.3908   24.3986 H       1  lig         0.4431
     10 H10        13.1922   10.2057   25.4960 H       1  lig         0.4431
     11 H11         6.4495    8.6523   20.7021 H       1  lig         0.4214
     12 C1          8.9315    9.0988   23.2953 C.ar    1  lig        -0.0999
     13 C2         10.5635    8.7156   21.6064 C.ar    1  lig        -0.0999
     14 C3          7.9620    8.9151   22.3482 C.ar    1  lig        -0.1787
     15 C4          9.5931    8.5681   20.6338 C.ar    1  lig        -0.1787
     16 C5         10.2385    9.0061   22.9264 C.ar    1  lig        -0.1394
     17 C6          8.2670    8.6868   21.0326 C.ar    1  lig         0.1292
     18 C7         12.1793   11.4196   23.2874 C.2     1  lig         0.9321
     19 C8         11.3202    9.1849   23.9746 C.3     1  lig        -0.0452
     20 C9         12.5518    9.9751   23.5312 C.3     1  lig        -0.0740
     21 N1         13.5629    9.8481   24.5802 N.4     1  lig        -0.8252
     22 O1         12.0080   11.7120   22.1059 O.co2   1  lig        -0.7573
     23 O2         12.0797   12.2786   24.2099 O.co2   1  lig        -0.7573
     24 O3          7.3101    8.5095   20.2115 O.3     1  lig        -0.4913
@<TRIPOS>BOND
     1     1    12    1
     2     2    13    1
     3     3    14    1
     4     4    15    1
     5     5    19    1
     6     6    19    1
     7     7    20    1
     8     8    21    1
     9     9    21    1
    10    10    21    1
    11    11    24    1
    12    12    14   ar
    13    12    16   ar
    14    13    15   ar
    15    13    16   ar
    16    14    17   ar
    17    15    17   ar
    18    16    19    1
    19    17    24    1
    20    18    20    1
    21    18    22    1
    22    18    23    1
    23    19    20    1
    24    20    21    1
@<TRIPOS>SUBSTRUCTURE
     1 lig         1 TEMP              0 ****  ****    0 ROOT


########## Name:		ligand
########## HA_RMSDs:		12.8467
########## HA_RMSDh:		12.7965
########## HA_RMSDm:		10.6461
########## Cluster Size:	1
##########    Grid Score:          -17.103786
##########      Grid_vdw:          -15.074272
##########       Grid_es:           -2.029514
##########    Int_energy:            2.271094

@<TRIPOS>MOLECULE
ligand
 24 24 1 0 0
SMALL
No Charge or Current Charge


@<TRIPOS>ATOM
      1 H1         10.2325    8.8804   24.2778 H       1  lig         0.1340
      2 H2         11.1330   10.0760   20.2809 H       1  lig         0.1340
      3 H3          9.2040    6.8503   23.4003 H       1  lig         0.1475
      4 H4         10.0515    8.0519   19.3851 H       1  lig         0.1475
      5 H5         12.4075   10.6121   23.1660 H       1  lig         0.0877
      6 H6         11.5022   11.6204   22.0823 H       1  lig         0.0877
      7 H7          9.7236   11.0480   24.2598 H       1  lig         0.0966
      8 H8          9.8807   13.0828   22.9100 H       1  lig         0.4431
      9 H9         10.0483   13.4898   24.5098 H       1  lig         0.4431
     10 H10        11.3950   13.4062   23.5331 H       1  lig         0.4431
     11 H11         9.2419    5.5297   21.6386 H       1  lig         0.4214
     12 C1         10.1939    8.7142   23.2042 C.ar    1  lig        -0.0999
     13 C2         10.6924    9.3575   20.9680 C.ar    1  lig        -0.0999
     14 C3          9.6226    7.5741   22.7097 C.ar    1  lig        -0.1787
     15 C4         10.0822    8.2286   20.4556 C.ar    1  lig        -0.1787
     16 C5         10.7263    9.6151   22.3337 C.ar    1  lig        -0.1394
     17 C6          9.5291    7.3341   21.3644 C.ar    1  lig         0.1292
     18 C7         11.5240   11.3584   25.3128 C.2     1  lig         0.9321
     19 C8         11.3830   10.8711   22.8742 C.3     1  lig        -0.0452
     20 C9         10.6851   11.5260   24.0667 C.3     1  lig        -0.0740
     21 N1         10.4783   12.9366   23.7409 N.4     1  lig        -0.8252
     22 O1         12.4546   12.1547   25.4147 O.co2   1  lig        -0.7573
     23 O2         11.3188   10.4562   26.1747 O.co2   1  lig        -0.7573
     24 O3          8.9981    6.2426   20.9798 O.3     1  lig        -0.4913
@<TRIPOS>BOND
     1     1    12    1
     2     2    13    1
     3     3    14    1
     4     4    15    1
     5     5    19    1
     6     6    19    1
     7     7    20    1
     8     8    21    1
     9     9    21    1
    10    10    21    1
    11    11    24    1
    12    12    14   ar
    13    12    16   ar
    14    13    15   ar
    15    13    16   ar
    16    14    17   ar
    17    15    17   ar
    18    16    19    1
    19    17    24    1
    20    18    20    1
    21    18    22    1
    22    18    23    1
    23    19    20    1
    24    20    21    1
@<TRIPOS>SUBSTRUCTURE
     1 lig         1 TEMP              0 ****  ****    0 ROOT


########## Name:		ligand
########## HA_RMSDs:		11.4942
########## HA_RMSDh:		11.4922
########## HA_RMSDm:		9.5522
########## Cluster Size:	1
##########    Grid Score:          -17.102625
##########      Grid_vdw:          -17.945343
##########       Grid_es:            0.842719
##########    Int_energy:            3.245729

@<TRIPOS>MOLECULE
ligand
 24 24 1 0 0
SMALL
No Charge or Current Charge


@<TRIPOS>ATOM
      1 H1         11.8858   12.6085   23.9305 H       1  lig         0.1340
      2 H2          9.3251    9.5716   22.3699 H       1  lig         0.1340
      3 H3         10.2901   12.9742   25.7385 H       1  lig         0.1475
      4 H4          7.6855    9.9703   24.1649 H       1  lig         0.1475
      5 H5         11.1315   10.4914   21.0324 H       1  lig         0.0877
      6 H6         12.1533   11.7802   21.5852 H       1  lig         0.0877
      7 H7         13.4235    9.6664   21.3349 H       1  lig         0.0966
      8 H8         11.5628    8.1689   21.8662 H       1  lig         0.4431
      9 H9         12.8290    7.8277   22.8827 H       1  lig         0.4431
     10 H10        11.5388    8.7209   23.4412 H       1  lig         0.4431
     11 H11         7.2976   11.2033   25.9266 H       1  lig         0.4214
     12 C1         10.9671   12.0285   23.9666 C.ar    1  lig        -0.0999
     13 C2          9.5277   10.3341   23.1184 C.ar    1  lig        -0.0999
     14 C3         10.0731   12.2277   24.9824 C.ar    1  lig        -0.1787
     15 C4          8.5988   10.5548   24.1173 C.ar    1  lig        -0.1787
     16 C5         10.6946   11.0838   23.0253 C.ar    1  lig        -0.1394
     17 C6          8.8918   11.5383   25.0547 C.ar    1  lig         0.1292
     18 C7         13.6975   10.3638   23.3060 C.2     1  lig         0.9321
     19 C8         11.6914   10.8394   21.9083 C.3     1  lig        -0.0452
     20 C9         12.7987    9.8303   22.2142 C.3     1  lig        -0.0740
     21 N1         12.1599    8.5746   22.6064 N.4     1  lig        -0.8252
     22 O1         14.6372   11.0482   22.9071 O.co2   1  lig        -0.7573
     23 O2         13.5295   10.1093   24.5331 O.co2   1  lig        -0.7573
     24 O3          8.1170   11.7668   26.0391 O.3     1  lig        -0.4913
@<TRIPOS>BOND
     1     1    12    1
     2     2    13    1
     3     3    14    1
     4     4    15    1
     5     5    19    1
     6     6    19    1
     7     7    20    1
     8     8    21    1
     9     9    21    1
    10    10    21    1
    11    11    24    1
    12    12    14   ar
    13    12    16   ar
    14    13    15   ar
    15    13    16   ar
    16    14    17   ar
    17    15    17   ar
    18    16    19    1
    19    17    24    1
    20    18    20    1
    21    18    22    1
    22    18    23    1
    23    19    20    1
    24    20    21    1
@<TRIPOS>SUBSTRUCTURE
     1 lig         1 TEMP              0 ****  ****    0 ROOT


########## Name:		ligand
########## HA_RMSDs:		13.3987
########## HA_RMSDh:		13.3268
########## HA_RMSDm:		11.3315
########## Cluster Size:	1
##########    Grid Score:          -17.072416
##########      Grid_vdw:          -15.820644
##########       Grid_es:           -1.251773
##########    Int_energy:            3.690937

@<TRIPOS>MOLECULE
ligand
 24 24 1 0 0
SMALL
No Charge or Current Charge


@<TRIPOS>ATOM
      1 H1          9.3668    7.5328   23.6142 H       1  lig         0.1340
      2 H2         11.2621   11.3089   24.2181 H       1  lig         0.1340
      3 H3          9.8843    7.6941   21.2362 H       1  lig         0.1475
      4 H4         11.7438   11.5016   21.8098 H       1  lig         0.1475
      5 H5         10.1299    8.2785   25.8470 H       1  lig         0.0877
      6 H6         10.6793    9.8999   26.1298 H       1  lig         0.0877
      7 H7          8.4772    9.8161   27.0474 H       1  lig         0.0966
      8 H8          7.8203    7.7536   25.9065 H       1  lig         0.4431
      9 H9          6.6259    8.8853   25.6923 H       1  lig         0.4431
     10 H10         7.6960    8.5692   24.4556 H       1  lig         0.4431
     11 H11        11.9287   10.0819   19.9846 H       1  lig         0.4214
     12 C1          9.8821    8.4100   23.2312 C.ar    1  lig        -0.0999
     13 C2         10.9501   10.5131   23.5458 C.ar    1  lig        -0.0999
     14 C3         10.1783    8.5005   21.8990 C.ar    1  lig        -0.1787
     15 C4         11.2190   10.6335   22.1958 C.ar    1  lig        -0.1787
     16 C5         10.2617    9.4205   24.0604 C.ar    1  lig        -0.1394
     17 C6         10.8037    9.5973   21.3678 C.ar    1  lig         0.1292
     18 C7          8.1996   11.0739   25.3777 C.2     1  lig         0.9321
     19 C8          9.9583    9.3178   25.5431 C.3     1  lig        -0.0452
     20 C9          8.5450    9.7235   25.9624 C.3     1  lig        -0.0740
     21 N1          7.6277    8.6836   25.4978 N.4     1  lig        -0.8252
     22 O1          8.2824   12.0109   26.1687 O.co2   1  lig        -0.7573
     23 O2          7.8226   11.2396   24.1822 O.co2   1  lig        -0.7573
     24 O3         11.0608    9.6025   20.1207 O.3     1  lig        -0.4913
@<TRIPOS>BOND
     1     1    12    1
     2     2    13    1
     3     3    14    1
     4     4    15    1
     5     5    19    1
     6     6    19    1
     7     7    20    1
     8     8    21    1
     9     9    21    1
    10    10    21    1
    11    11    24    1
    12    12    14   ar
    13    12    16   ar
    14    13    15   ar
    15    13    16   ar
    16    14    17   ar
    17    15    17   ar
    18    16    19    1
    19    17    24    1
    20    18    20    1
    21    18    22    1
    22    18    23    1
    23    19    20    1
    24    20    21    1
@<TRIPOS>SUBSTRUCTURE
     1 lig         1 TEMP              0 ****  ****    0 ROOT


########## Name:		ligand
########## HA_RMSDs:		13.7292
########## HA_RMSDh:		13.6906
########## HA_RMSDm:		11.6338
########## Cluster Size:	1
##########    Grid Score:          -17.029016
##########      Grid_vdw:          -15.030719
##########       Grid_es:           -1.998298
##########    Int_energy:            1.416447

@<TRIPOS>MOLECULE
ligand
 24 24 1 0 0
SMALL
No Charge or Current Charge


@<TRIPOS>ATOM
      1 H1          9.0648    9.9625   24.8790 H       1  lig         0.1340
      2 H2          7.7409    8.6571   21.0373 H       1  lig         0.1340
      3 H3          7.2022    8.7560   25.8908 H       1  lig         0.1475
      4 H4          5.8289    7.4778   22.0484 H       1  lig         0.1475
      5 H5          9.6565    9.9233   21.1855 H       1  lig         0.0877
      6 H6          9.5330   11.2236   22.3276 H       1  lig         0.0877
      7 H7         10.9763    9.3625   23.8108 H       1  lig         0.0966
      8 H8         11.4334   11.7426   23.4745 H       1  lig         0.4431
      9 H9         12.8220   10.8853   23.1749 H       1  lig         0.4431
     10 H10        11.9098   11.4519   21.9015 H       1  lig         0.4431
     11 H11         4.9187    6.9669   23.9650 H       1  lig         0.4214
     12 C1          8.3600    9.4277   24.2474 C.ar    1  lig        -0.0999
     13 C2          7.6081    8.6822   22.1163 C.ar    1  lig        -0.0999
     14 C3          7.3178    8.7458   24.8125 C.ar    1  lig        -0.1787
     15 C4          6.5289    8.0232   22.6733 C.ar    1  lig        -0.1787
     16 C5          8.5060    9.4040   22.8943 C.ar    1  lig        -0.1394
     17 C6          6.3913    8.0791   24.0553 C.ar    1  lig         0.1292
     18 C7         11.7103    8.7433   21.9334 C.2     1  lig         0.9321
     19 C8          9.6725   10.1378   22.2604 C.3     1  lig        -0.0452
     20 C9         11.0560    9.7872   22.8091 C.3     1  lig        -0.0740
     21 N1         11.8407   11.0203   22.8570 N.4     1  lig        -0.8252
     22 O1         11.4019    7.5840   22.2009 O.co2   1  lig        -0.7573
     23 O2         12.5356    9.0209   21.0166 O.co2   1  lig        -0.7573
     24 O3          5.4577    7.4534   24.6538 O.3     1  lig        -0.4913
@<TRIPOS>BOND
     1     1    12    1
     2     2    13    1
     3     3    14    1
     4     4    15    1
     5     5    19    1
     6     6    19    1
     7     7    20    1
     8     8    21    1
     9     9    21    1
    10    10    21    1
    11    11    24    1
    12    12    14   ar
    13    12    16   ar
    14    13    15   ar
    15    13    16   ar
    16    14    17   ar
    17    15    17   ar
    18    16    19    1
    19    17    24    1
    20    18    20    1
    21    18    22    1
    22    18    23    1
    23    19    20    1
    24    20    21    1
@<TRIPOS>SUBSTRUCTURE
     1 lig         1 TEMP              0 ****  ****    0 ROOT


########## Name:		ligand
########## HA_RMSDs:		10.1393
########## HA_RMSDh:		10.0909
########## HA_RMSDm:		8.0772
########## Cluster Size:	1
##########    Grid Score:          -16.997835
##########      Grid_vdw:          -13.391544
##########       Grid_es:           -3.606292
##########    Int_energy:            2.126124

@<TRIPOS>MOLECULE
ligand
 24 24 1 0 0
SMALL
No Charge or Current Charge


@<TRIPOS>ATOM
      1 H1         18.8619   14.8264   27.4656 H       1  lig         0.1340
      2 H2         18.8322   11.8000   24.4564 H       1  lig         0.1340
      3 H3         21.1545   15.3752   26.8400 H       1  lig         0.1475
      4 H4         21.1645   12.3154   23.8531 H       1  lig         0.1475
      5 H5         17.1862   11.8382   26.4039 H       1  lig         0.0877
      6 H6         17.0625   13.2409   27.4177 H       1  lig         0.0877
      7 H7         15.8390   12.7362   24.7792 H       1  lig         0.0966
      8 H8         17.5959   14.3051   24.1170 H       1  lig         0.4431
      9 H9         16.1360   15.0927   24.0801 H       1  lig         0.4431
     10 H10        17.1743   15.3367   25.3595 H       1  lig         0.4431
     11 H11        22.7687   14.9596   25.6972 H       1  lig         0.4214
     12 C1         19.3565   14.2647   26.6773 C.ar    1  lig        -0.0999
     13 C2         19.3598   12.5879   24.9888 C.ar    1  lig        -0.0999
     14 C3         20.6402   14.5739   26.3207 C.ar    1  lig        -0.1787
     15 C4         20.6698   12.8651   24.6476 C.ar    1  lig        -0.1787
     16 C5         18.7122   13.2645   26.0160 C.ar    1  lig        -0.1394
     17 C6         21.3116   13.8775   25.3510 C.ar    1  lig         0.1292
     18 C7         15.0179   13.9669   26.2819 C.2     1  lig         0.9321
     19 C8         17.2802   12.9303   26.3886 C.3     1  lig        -0.0452
     20 C9         16.2025   13.5015   25.4666 C.3     1  lig        -0.0740
     21 N1         16.8017   14.6000   24.7096 N.4     1  lig        -0.8252
     22 O1         14.1320   13.1269   26.4238 O.co2   1  lig        -0.7573
     23 O2         14.9157   15.1333   26.7591 O.co2   1  lig        -0.7573
     24 O3         22.4995   14.2341   25.0625 O.3     1  lig        -0.4913
@<TRIPOS>BOND
     1     1    12    1
     2     2    13    1
     3     3    14    1
     4     4    15    1
     5     5    19    1
     6     6    19    1
     7     7    20    1
     8     8    21    1
     9     9    21    1
    10    10    21    1
    11    11    24    1
    12    12    14   ar
    13    12    16   ar
    14    13    15   ar
    15    13    16   ar
    16    14    17   ar
    17    15    17   ar
    18    16    19    1
    19    17    24    1
    20    18    20    1
    21    18    22    1
    22    18    23    1
    23    19    20    1
    24    20    21    1
@<TRIPOS>SUBSTRUCTURE
     1 lig         1 TEMP              0 ****  ****    0 ROOT


########## Name:		ligand
########## HA_RMSDs:		13.3497
########## HA_RMSDh:		13.2971
########## HA_RMSDm:		10.4690
########## Cluster Size:	1
##########    Grid Score:          -16.993563
##########      Grid_vdw:          -17.407024
##########       Grid_es:            0.413461
##########    Int_energy:            2.088374

@<TRIPOS>MOLECULE
ligand
 24 24 1 0 0
SMALL
No Charge or Current Charge


@<TRIPOS>ATOM
      1 H1         13.9916   14.7647   27.5464 H       1  lig         0.1340
      2 H2         13.2443   15.1871   31.7272 H       1  lig         0.1340
      3 H3         14.5481   17.1371   27.4429 H       1  lig         0.1475
      4 H4         13.7567   17.5944   31.6201 H       1  lig         0.1475
      5 H5         13.4908   12.9062   28.7458 H       1  lig         0.0877
      6 H6         13.8798   12.8460   30.4357 H       1  lig         0.0877
      7 H7         11.3020   13.8292   30.5824 H       1  lig         0.0966
      8 H8         12.2762   11.9136   31.7520 H       1  lig         0.4431
      9 H9         10.8240   11.4544   31.0937 H       1  lig         0.4431
     10 H10        12.2461   11.0121   30.3476 H       1  lig         0.4431
     11 H11        14.0749   19.2495   30.1225 H       1  lig         0.4214
     12 C1         13.9300   15.3743   28.4444 C.ar    1  lig        -0.0999
     13 C2         13.5260   15.6312   30.7753 C.ar    1  lig        -0.0999
     14 C3         14.2468   16.7037   28.3903 C.ar    1  lig        -0.1787
     15 C4         13.8050   16.9836   30.7242 C.ar    1  lig        -0.1787
     16 C5         13.5615   14.8331   29.6377 C.ar    1  lig        -0.1394
     17 C6         14.1597   17.5155   29.4901 C.ar    1  lig         0.1292
     18 C7         10.9939   12.8218   28.7556 C.2     1  lig         0.9321
     19 C8         13.2313   13.3544   29.7120 C.3     1  lig        -0.0452
     20 C9         11.7761   13.0134   30.0347 C.3     1  lig        -0.0740
     21 N1         11.7747   11.8025   30.8547 N.4     1  lig        -0.8252
     22 O1         11.0540   13.7668   27.9720 O.co2   1  lig        -0.7573
     23 O2         10.3018   11.7925   28.5098 O.co2   1  lig        -0.7573
     24 O3         14.4866   18.7399   29.3659 O.3     1  lig        -0.4913
@<TRIPOS>BOND
     1     1    12    1
     2     2    13    1
     3     3    14    1
     4     4    15    1
     5     5    19    1
     6     6    19    1
     7     7    20    1
     8     8    21    1
     9     9    21    1
    10    10    21    1
    11    11    24    1
    12    12    14   ar
    13    12    16   ar
    14    13    15   ar
    15    13    16   ar
    16    14    17   ar
    17    15    17   ar
    18    16    19    1
    19    17    24    1
    20    18    20    1
    21    18    22    1
    22    18    23    1
    23    19    20    1
    24    20    21    1
@<TRIPOS>SUBSTRUCTURE
     1 lig         1 TEMP              0 ****  ****    0 ROOT


########## Name:		ligand
########## HA_RMSDs:		11.5631
########## HA_RMSDh:		11.5032
########## HA_RMSDm:		9.0047
########## Cluster Size:	1
##########    Grid Score:          -16.989031
##########      Grid_vdw:          -16.139790
##########       Grid_es:           -0.849242
##########    Int_energy:            1.881279

@<TRIPOS>MOLECULE
ligand
 24 24 1 0 0
SMALL
No Charge or Current Charge


@<TRIPOS>ATOM
      1 H1         15.2818   15.3903   25.8812 H       1  lig         0.1340
      2 H2         13.6635   14.6147   29.7536 H       1  lig         0.1340
      3 H3         15.8935   17.6310   26.6253 H       1  lig         0.1475
      4 H4         14.2335   16.8934   30.4963 H       1  lig         0.1475
      5 H5         14.1314   13.4396   26.2191 H       1  lig         0.0877
      6 H6         14.7854   12.7404   27.6662 H       1  lig         0.0877
      7 H7         12.4247   13.2729   28.7374 H       1  lig         0.0966
      8 H8         13.3155   11.0576   28.2026 H       1  lig         0.4431
      9 H9         11.7089   11.1002   27.7902 H       1  lig         0.4431
     10 H10        12.8703   11.2397   26.6044 H       1  lig         0.4431
     11 H11        15.6348   18.5964   29.8798 H       1  lig         0.4214
     12 C1         15.0409   15.7089   26.8922 C.ar    1  lig        -0.0999
     13 C2         14.1513   15.2959   29.0603 C.ar    1  lig        -0.0999
     14 C3         15.3876   16.9630   27.3138 C.ar    1  lig        -0.1787
     15 C4         14.4610   16.5741   29.4842 C.ar    1  lig        -0.1787
     16 C5         14.4145   14.8711   27.7631 C.ar    1  lig        -0.1394
     17 C6         15.0824   17.4164   28.5698 C.ar    1  lig         0.1292
     18 C7         11.6099   13.6354   26.8265 C.2     1  lig         0.9321
     19 C8         14.0474   13.4702   27.3117 C.3     1  lig        -0.0452
     20 C9         12.6520   12.9877   27.7092 C.3     1  lig        -0.0740
     21 N1         12.6337   11.5306   27.5859 N.4     1  lig        -0.8252
     22 O1         11.1110   14.6589   27.2894 O.co2   1  lig        -0.7573
     23 O2         11.2454   13.1583   25.7138 O.co2   1  lig        -0.7573
     24 O3         15.4521   18.5904   28.8958 O.3     1  lig        -0.4913
@<TRIPOS>BOND
     1     1    12    1
     2     2    13    1
     3     3    14    1
     4     4    15    1
     5     5    19    1
     6     6    19    1
     7     7    20    1
     8     8    21    1
     9     9    21    1
    10    10    21    1
    11    11    24    1
    12    12    14   ar
    13    12    16   ar
    14    13    15   ar
    15    13    16   ar
    16    14    17   ar
    17    15    17   ar
    18    16    19    1
    19    17    24    1
    20    18    20    1
    21    18    22    1
    22    18    23    1
    23    19    20    1
    24    20    21    1
@<TRIPOS>SUBSTRUCTURE
     1 lig         1 TEMP              0 ****  ****    0 ROOT


########## Name:		ligand
########## HA_RMSDs:		9.6962
########## HA_RMSDh:		9.6283
########## HA_RMSDm:		7.2539
########## Cluster Size:	1
##########    Grid Score:          -16.974840
##########      Grid_vdw:          -13.543983
##########       Grid_es:           -3.430857
##########    Int_energy:            2.969334

@<TRIPOS>MOLECULE
ligand
 24 24 1 0 0
SMALL
No Charge or Current Charge


@<TRIPOS>ATOM
      1 H1         16.4587   14.6386   24.5185 H       1  lig         0.1340
      2 H2         15.5501   10.9298   26.4251 H       1  lig         0.1340
      3 H3         15.2376   15.8020   26.2804 H       1  lig         0.1475
      4 H4         14.2731   12.0948   28.1804 H       1  lig         0.1475
      5 H5         17.6927   12.6076   23.9924 H       1  lig         0.0877
      6 H6         17.2779   11.0595   24.6574 H       1  lig         0.0877
      7 H7         16.5727   10.8976   22.4064 H       1  lig         0.0966
      8 H8         16.8176   13.2851   21.9306 H       1  lig         0.4431
      9 H9         15.3479   12.7745   21.3543 H       1  lig         0.4431
     10 H10        15.4246   13.6215   22.7864 H       1  lig         0.4431
     11 H11        14.5751   14.6285   29.0578 H       1  lig         0.4214
     12 C1         15.9795   14.0693   25.3110 C.ar    1  lig        -0.0999
     13 C2         15.4674   12.0137   26.3949 C.ar    1  lig        -0.0999
     14 C3         15.2988   14.7195   26.3032 C.ar    1  lig        -0.1787
     15 C4         14.7434   12.6574   27.3803 C.ar    1  lig        -0.1787
     16 C5         16.0613   12.7111   25.3493 C.ar    1  lig        -0.1394
     17 C6         14.6587   14.0428   27.3075 C.ar    1  lig         0.1292
     18 C7         14.7010   11.0678   23.3628 C.2     1  lig         0.9321
     19 C8         16.8343   11.9830   24.2661 C.3     1  lig        -0.0452
     20 C9         16.0478   11.6491   22.9980 C.3     1  lig        -0.0740
     21 N1         15.9116   12.8811   22.2220 N.4     1  lig        -0.8252
     22 O1         14.7040    9.8554   23.5644 O.co2   1  lig        -0.7573
     23 O2         13.6407   11.7537   23.4279 O.co2   1  lig        -0.7573
     24 O3         14.0587   14.7177   28.2052 O.3     1  lig        -0.4913
@<TRIPOS>BOND
     1     1    12    1
     2     2    13    1
     3     3    14    1
     4     4    15    1
     5     5    19    1
     6     6    19    1
     7     7    20    1
     8     8    21    1
     9     9    21    1
    10    10    21    1
    11    11    24    1
    12    12    14   ar
    13    12    16   ar
    14    13    15   ar
    15    13    16   ar
    16    14    17   ar
    17    15    17   ar
    18    16    19    1
    19    17    24    1
    20    18    20    1
    21    18    22    1
    22    18    23    1
    23    19    20    1
    24    20    21    1
@<TRIPOS>SUBSTRUCTURE
     1 lig         1 TEMP              0 ****  ****    0 ROOT


########## Name:		ligand
########## HA_RMSDs:		13.6479
########## HA_RMSDh:		13.6167
########## HA_RMSDm:		9.7859
########## Cluster Size:	1
##########    Grid Score:          -16.966503
##########      Grid_vdw:          -15.115803
##########       Grid_es:           -1.850700
##########    Int_energy:            3.772469

@<TRIPOS>MOLECULE
ligand
 24 24 1 0 0
SMALL
No Charge or Current Charge


@<TRIPOS>ATOM
      1 H1         17.4552   15.5332   30.1973 H       1  lig         0.1340
      2 H2         13.4728   14.4738   29.0863 H       1  lig         0.1340
      3 H3         18.0838   15.4961   27.8410 H       1  lig         0.1475
      4 H4         14.1128   14.3857   26.7089 H       1  lig         0.1475
      5 H5         14.3342   14.1938   31.4294 H       1  lig         0.0877
      6 H6         15.8890   14.8043   31.8989 H       1  lig         0.0877
      7 H7         13.4378   16.1117   32.2445 H       1  lig         0.0966
      8 H8         13.4776   16.7049   29.8710 H       1  lig         0.4431
      9 H9         13.7147   18.0801   30.7684 H       1  lig         0.4431
     10 H10        15.0127   17.3400   30.0323 H       1  lig         0.4431
     11 H11        16.1462   14.1637   25.4523 H       1  lig         0.4214
     12 C1         16.7152   15.2742   29.4442 C.ar    1  lig        -0.0999
     13 C2         14.4997   14.6905   28.8013 C.ar    1  lig        -0.0999
     14 C3         17.0637   15.2580   28.1217 C.ar    1  lig        -0.1787
     15 C4         14.8504   14.6320   27.4661 C.ar    1  lig        -0.1787
     16 C5         15.4313   14.9838   29.7906 C.ar    1  lig        -0.1394
     17 C6         16.1720   14.9136   27.1407 C.ar    1  lig         0.1292
     18 C7         15.2803   17.0223   32.7165 C.2     1  lig         0.9321
     19 C8         15.0300   15.0224   31.2529 C.3     1  lig        -0.0452
     20 C9         14.3765   16.3202   31.7291 C.3     1  lig        -0.0740
     21 N1         14.1193   17.1469   30.5505 N.4     1  lig        -0.8252
     22 O1         16.4130   17.2536   32.2993 O.co2   1  lig        -0.7573
     23 O2         14.9261   17.3250   33.8919 O.co2   1  lig        -0.7573
     24 O3         16.5654   14.9368   25.9299 O.3     1  lig        -0.4913
@<TRIPOS>BOND
     1     1    12    1
     2     2    13    1
     3     3    14    1
     4     4    15    1
     5     5    19    1
     6     6    19    1
     7     7    20    1
     8     8    21    1
     9     9    21    1
    10    10    21    1
    11    11    24    1
    12    12    14   ar
    13    12    16   ar
    14    13    15   ar
    15    13    16   ar
    16    14    17   ar
    17    15    17   ar
    18    16    19    1
    19    17    24    1
    20    18    20    1
    21    18    22    1
    22    18    23    1
    23    19    20    1
    24    20    21    1
@<TRIPOS>SUBSTRUCTURE
     1 lig         1 TEMP              0 ****  ****    0 ROOT


########## Name:		ligand
########## HA_RMSDs:		11.3921
########## HA_RMSDh:		11.2682
########## HA_RMSDm:		7.7000
########## Cluster Size:	1
##########    Grid Score:          -16.966309
##########      Grid_vdw:          -15.393348
##########       Grid_es:           -1.572961
##########    Int_energy:            3.463793

@<TRIPOS>MOLECULE
ligand
 24 24 1 0 0
SMALL
No Charge or Current Charge


@<TRIPOS>ATOM
      1 H1         16.5402   16.7529   26.2062 H       1  lig         0.1340
      2 H2         17.1032   13.2634   28.5982 H       1  lig         0.1340
      3 H3         16.2090   15.3211   24.2596 H       1  lig         0.1475
      4 H4         16.8193   11.8130   26.6271 H       1  lig         0.1475
      5 H5         17.5910   15.3987   29.4923 H       1  lig         0.0877
      6 H6         17.7235   16.8219   28.5086 H       1  lig         0.0877
      7 H7         15.9682   16.9122   30.3678 H       1  lig         0.0966
      8 H8         15.1159   14.6476   30.0044 H       1  lig         0.4431
      9 H9         13.8720   15.7256   29.7951 H       1  lig         0.4431
     10 H10        14.6190   15.0575   28.4646 H       1  lig         0.4431
     11 H11        15.3514   12.9158   23.9992 H       1  lig         0.4214
     12 C1         16.6102   15.6732   26.3109 C.ar    1  lig        -0.0999
     13 C2         16.9135   13.7138   27.6267 C.ar    1  lig        -0.0999
     14 C3         16.4195   14.8677   25.2221 C.ar    1  lig        -0.1787
     15 C4         16.7623   12.8922   26.5261 C.ar    1  lig        -0.1787
     16 C5         16.8648   15.0988   27.5184 C.ar    1  lig        -0.1394
     17 C6         16.5227   13.5041   25.3014 C.ar    1  lig         0.1292
     18 C7         15.2563   17.6966   28.5444 C.2     1  lig         0.9321
     19 C8         17.0542   15.9834   28.7361 C.3     1  lig        -0.0452
     20 C9         15.7734   16.5356   29.3626 C.3     1  lig        -0.0740
     21 N1         14.8022   15.4439   29.4244 N.4     1  lig        -0.8252
     22 O1         16.0201   18.6572   28.4785 O.co2   1  lig        -0.7573
     23 O2         14.1186   17.7081   27.9927 O.co2   1  lig        -0.7573
     24 O3         16.3160   12.8193   24.2480 O.3     1  lig        -0.4913
@<TRIPOS>BOND
     1     1    12    1
     2     2    13    1
     3     3    14    1
     4     4    15    1
     5     5    19    1
     6     6    19    1
     7     7    20    1
     8     8    21    1
     9     9    21    1
    10    10    21    1
    11    11    24    1
    12    12    14   ar
    13    12    16   ar
    14    13    15   ar
    15    13    16   ar
    16    14    17   ar
    17    15    17   ar
    18    16    19    1
    19    17    24    1
    20    18    20    1
    21    18    22    1
    22    18    23    1
    23    19    20    1
    24    20    21    1
@<TRIPOS>SUBSTRUCTURE
     1 lig         1 TEMP              0 ****  ****    0 ROOT


########## Name:		ligand
########## HA_RMSDs:		10.6245
########## HA_RMSDh:		10.6163
########## HA_RMSDm:		8.7673
########## Cluster Size:	1
##########    Grid Score:          -16.958799
##########      Grid_vdw:          -15.396572
##########       Grid_es:           -1.562227
##########    Int_energy:            2.999137

@<TRIPOS>MOLECULE
ligand
 24 24 1 0 0
SMALL
No Charge or Current Charge


@<TRIPOS>ATOM
      1 H1         14.2541   14.4459   27.5175 H       1  lig         0.1340
      2 H2         17.4218   17.1830   26.6873 H       1  lig         0.1340
      3 H3         13.1909   16.1517   28.8991 H       1  lig         0.1475
      4 H4         16.3788   18.8932   28.1213 H       1  lig         0.1475
      5 H5         15.7816   13.9953   25.7740 H       1  lig         0.0877
      6 H6         17.0137   15.1066   25.2666 H       1  lig         0.0877
      7 H7         17.8647   12.9090   26.2344 H       1  lig         0.0966
      8 H8         16.2347   12.7934   28.0555 H       1  lig         0.4431
      9 H9         17.7612   12.7996   28.7057 H       1  lig         0.4431
     10 H10        16.8494   14.1935   28.7248 H       1  lig         0.4431
     11 H11        13.3471   17.9688   29.8128 H       1  lig         0.4214
     12 C1         14.7330   15.4133   27.6465 C.ar    1  lig        -0.0999
     13 C2         16.4848   16.9581   27.1912 C.ar    1  lig        -0.0999
     14 C3         14.1363   16.3735   28.4163 C.ar    1  lig        -0.1787
     15 C4         15.9110   17.9216   27.9987 C.ar    1  lig        -0.1787
     16 C5         15.9148   15.6999   27.0350 C.ar    1  lig        -0.1394
     17 C6         14.7146   17.5971   28.6272 C.ar    1  lig         0.1292
     18 C7         18.9152   14.5688   27.0016 C.2     1  lig         0.9321
     19 C8         16.5721   14.6493   26.1603 C.3     1  lig        -0.0452
     20 C9         17.6328   13.7846   26.8425 C.3     1  lig        -0.0740
     21 N1         17.0960   13.3597   28.1348 N.4     1  lig        -0.8252
     22 O1         19.7086   14.4474   26.0708 O.co2   1  lig        -0.7573
     23 O2         19.1803   15.2717   28.0187 O.co2   1  lig        -0.7573
     24 O3         14.0912   18.4458   29.3431 O.3     1  lig        -0.4913
@<TRIPOS>BOND
     1     1    12    1
     2     2    13    1
     3     3    14    1
     4     4    15    1
     5     5    19    1
     6     6    19    1
     7     7    20    1
     8     8    21    1
     9     9    21    1
    10    10    21    1
    11    11    24    1
    12    12    14   ar
    13    12    16   ar
    14    13    15   ar
    15    13    16   ar
    16    14    17   ar
    17    15    17   ar
    18    16    19    1
    19    17    24    1
    20    18    20    1
    21    18    22    1
    22    18    23    1
    23    19    20    1
    24    20    21    1
@<TRIPOS>SUBSTRUCTURE
     1 lig         1 TEMP              0 ****  ****    0 ROOT


########## Name:		ligand
########## HA_RMSDs:		14.9346
########## HA_RMSDh:		14.8966
########## HA_RMSDm:		13.3541
########## Cluster Size:	1
##########    Grid Score:          -16.927034
##########      Grid_vdw:          -15.937400
##########       Grid_es:           -0.989634
##########    Int_energy:            8.369060

@<TRIPOS>MOLECULE
ligand
 24 24 1 0 0
SMALL
No Charge or Current Charge


@<TRIPOS>ATOM
      1 H1          7.1838    7.5054   24.8829 H       1  lig         0.1340
      2 H2          9.6728    9.0939   21.8011 H       1  lig         0.1340
      3 H3          5.6945    6.6128   23.1700 H       1  lig         0.1475
      4 H4          8.1466    8.2381   20.0669 H       1  lig         0.1475
      5 H5          9.7661    8.0746   25.1354 H       1  lig         0.0877
      6 H6         10.3740    9.2898   24.0563 H       1  lig         0.0877
      7 H7          9.6577   10.4580   26.0218 H       1  lig         0.0966
      8 H8          8.2624    8.6460   26.8915 H       1  lig         0.4431
      9 H9          7.3824   10.0525   26.9098 H       1  lig         0.4431
     10 H10         7.1189    8.9286   25.7089 H       1  lig         0.4431
     11 H11         5.2351    6.4532   21.2075 H       1  lig         0.4214
     12 C1          7.4028    7.6784   23.8323 C.ar    1  lig        -0.0999
     13 C2          8.7797    8.5488   22.0976 C.ar    1  lig        -0.0999
     14 C3          6.5723    7.1743   22.8696 C.ar    1  lig        -0.1787
     15 C4          7.9264    8.0786   21.1177 C.ar    1  lig        -0.1787
     16 C5          8.5083    8.3744   23.4498 C.ar    1  lig        -0.1394
     17 C6          6.7946    7.3882   21.5350 C.ar    1  lig         0.1292
     18 C7          8.2706   11.1110   24.5739 C.2     1  lig         0.9321
     19 C8          9.4477    8.9169   24.5100 C.3     1  lig        -0.0452
     20 C9          8.8718   10.0075   25.4138 C.3     1  lig        -0.0740
     21 N1          7.8730    9.3843   26.2813 N.4     1  lig        -0.8252
     22 O1          7.2682   10.7853   23.9416 O.co2   1  lig        -0.7573
     23 O2          8.7649   12.2719   24.4915 O.co2   1  lig        -0.7573
     24 O3          5.9862    6.8735   20.6967 O.3     1  lig        -0.4913
@<TRIPOS>BOND
     1     1    12    1
     2     2    13    1
     3     3    14    1
     4     4    15    1
     5     5    19    1
     6     6    19    1
     7     7    20    1
     8     8    21    1
     9     9    21    1
    10    10    21    1
    11    11    24    1
    12    12    14   ar
    13    12    16   ar
    14    13    15   ar
    15    13    16   ar
    16    14    17   ar
    17    15    17   ar
    18    16    19    1
    19    17    24    1
    20    18    20    1
    21    18    22    1
    22    18    23    1
    23    19    20    1
    24    20    21    1
@<TRIPOS>SUBSTRUCTURE
     1 lig         1 TEMP              0 ****  ****    0 ROOT


########## Name:		ligand
########## HA_RMSDs:		12.4366
########## HA_RMSDh:		12.3201
########## HA_RMSDm:		10.5733
########## Cluster Size:	1
##########    Grid Score:          -16.913847
##########      Grid_vdw:          -16.219873
##########       Grid_es:           -0.693974
##########    Int_energy:            1.870897

@<TRIPOS>MOLECULE
ligand
 24 24 1 0 0
SMALL
No Charge or Current Charge


@<TRIPOS>ATOM
      1 H1          9.5209   11.2395   22.8327 H       1  lig         0.1340
      2 H2         12.8387   11.5553   25.4988 H       1  lig         0.1340
      3 H3         10.9771   10.1505   21.2072 H       1  lig         0.1475
      4 H4         14.3264   10.5012   23.8421 H       1  lig         0.1475
      5 H5         10.3258   13.2318   25.1926 H       1  lig         0.0877
      6 H6          9.1336   11.9814   25.0315 H       1  lig         0.0877
      7 H7         11.2129   10.9937   26.8042 H       1  lig         0.0966
      8 H8          8.8568   10.3382   26.7288 H       1  lig         0.4431
      9 H9          9.2029   10.9099   28.2475 H       1  lig         0.4431
     10 H10         8.3904   11.8804   27.1647 H       1  lig         0.4431
     11 H11        13.9348    8.9595   21.9565 H       1  lig         0.4214
     12 C1         10.5724   11.0896   23.0638 C.ar    1  lig        -0.0999
     13 C2         12.4344   11.2484   24.5370 C.ar    1  lig        -0.0999
     14 C3         11.3901   10.4742   22.1563 C.ar    1  lig        -0.1787
     15 C4         13.2783   10.6641   23.6120 C.ar    1  lig        -0.1787
     16 C5         11.0936   11.4856   24.2573 C.ar    1  lig        -0.1394
     17 C6         12.7260   10.2866   22.3937 C.ar    1  lig         0.1292
     18 C7         10.8635   12.9377   27.5432 C.2     1  lig         0.9321
     19 C8         10.1890   12.1476   25.2793 C.3     1  lig        -0.0452
     20 C9         10.4200   11.7399   26.7348 C.3     1  lig        -0.0740
     21 N1          9.1688   11.1790   27.2432 N.4     1  lig        -0.8252
     22 O1          9.9540   13.6907   27.8842 O.co2   1  lig        -0.7573
     23 O2         12.0721   13.1779   27.8266 O.co2   1  lig        -0.7573
     24 O3         13.4203    9.6913   21.5077 O.3     1  lig        -0.4913
@<TRIPOS>BOND
     1     1    12    1
     2     2    13    1
     3     3    14    1
     4     4    15    1
     5     5    19    1
     6     6    19    1
     7     7    20    1
     8     8    21    1
     9     9    21    1
    10    10    21    1
    11    11    24    1
    12    12    14   ar
    13    12    16   ar
    14    13    15   ar
    15    13    16   ar
    16    14    17   ar
    17    15    17   ar
    18    16    19    1
    19    17    24    1
    20    18    20    1
    21    18    22    1
    22    18    23    1
    23    19    20    1
    24    20    21    1
@<TRIPOS>SUBSTRUCTURE
     1 lig         1 TEMP              0 ****  ****    0 ROOT


########## Name:		ligand
########## HA_RMSDs:		13.1605
########## HA_RMSDh:		13.1353
########## HA_RMSDm:		10.9917
########## Cluster Size:	1
##########    Grid Score:          -16.911606
##########      Grid_vdw:          -14.262960
##########       Grid_es:           -2.648645
##########    Int_energy:            4.645294

@<TRIPOS>MOLECULE
ligand
 24 24 1 0 0
SMALL
No Charge or Current Charge


@<TRIPOS>ATOM
      1 H1         10.2209    6.5650   23.3600 H       1  lig         0.1340
      2 H2         10.2737   10.8232   23.6444 H       1  lig         0.1340
      3 H3          8.1047    6.5464   24.5725 H       1  lig         0.1475
      4 H4          8.1619   10.8084   24.9130 H       1  lig         0.1475
      5 H5         12.4499    9.1964   23.3112 H       1  lig         0.0877
      6 H6         12.0770    7.6940   22.5275 H       1  lig         0.0877
      7 H7         12.5016    9.1097   20.7025 H       1  lig         0.0966
      8 H8         12.6248   11.1426   22.0586 H       1  lig         0.4431
      9 H9         11.6906   11.4489   20.7221 H       1  lig         0.4431
     10 H10        10.9617   11.1792   22.1953 H       1  lig         0.4431
     11 H11         6.4338    7.7392   25.1232 H       1  lig         0.4214
     12 C1          9.7841    7.5006   23.6998 C.ar    1  lig        -0.0999
     13 C2          9.7893    9.8746   23.8638 C.ar    1  lig        -0.0999
     14 C3          8.5948    7.4935   24.3752 C.ar    1  lig        -0.1787
     15 C4          8.6086    9.8763   24.5816 C.ar    1  lig        -0.1787
     16 C5         10.3905    8.6927   23.4466 C.ar    1  lig        -0.1394
     17 C6          8.0197    8.6449   24.8440 C.ar    1  lig         0.1292
     18 C7         10.3966    9.0673   20.5835 C.2     1  lig         0.9321
     19 C8         11.6978    8.7121   22.6775 C.3     1  lig        -0.0452
     20 C9         11.6637    9.4257   21.3257 C.3     1  lig        -0.0740
     21 N1         11.7522   10.8632   21.5795 N.4     1  lig        -0.8252
     22 O1         10.5058    8.1156   19.8135 O.co2   1  lig        -0.7573
     23 O2          9.3120    9.7050   20.7085 O.co2   1  lig        -0.7573
     24 O3          6.9031    8.5604   25.4501 O.3     1  lig        -0.4913
@<TRIPOS>BOND
     1     1    12    1
     2     2    13    1
     3     3    14    1
     4     4    15    1
     5     5    19    1
     6     6    19    1
     7     7    20    1
     8     8    21    1
     9     9    21    1
    10    10    21    1
    11    11    24    1
    12    12    14   ar
    13    12    16   ar
    14    13    15   ar
    15    13    16   ar
    16    14    17   ar
    17    15    17   ar
    18    16    19    1
    19    17    24    1
    20    18    20    1
    21    18    22    1
    22    18    23    1
    23    19    20    1
    24    20    21    1
@<TRIPOS>SUBSTRUCTURE
     1 lig         1 TEMP              0 ****  ****    0 ROOT


########## Name:		ligand
########## HA_RMSDs:		12.4217
########## HA_RMSDh:		12.3295
########## HA_RMSDm:		10.4661
########## Cluster Size:	1
##########    Grid Score:          -16.903183
##########      Grid_vdw:          -17.228020
##########       Grid_es:            0.324837
##########    Int_energy:            3.243448

@<TRIPOS>MOLECULE
ligand
 24 24 1 0 0
SMALL
No Charge or Current Charge


@<TRIPOS>ATOM
      1 H1          8.3383   10.2368   23.0720 H       1  lig         0.1340
      2 H2         12.0377   12.3056   23.5716 H       1  lig         0.1340
      3 H3          9.3174    9.0112   21.2044 H       1  lig         0.1475
      4 H4         13.0170   11.1074   21.6547 H       1  lig         0.1475
      5 H5          9.8492   13.1597   24.5251 H       1  lig         0.0877
      6 H6          8.4287   12.1634   24.5141 H       1  lig         0.0877
      7 H7          9.0923   11.8045   26.7002 H       1  lig         0.0966
      8 H8         11.0416   13.2657   26.4723 H       1  lig         0.4431
      9 H9         11.4874   11.9098   27.3183 H       1  lig         0.4431
     10 H10        11.8921   12.0495   25.7086 H       1  lig         0.4431
     11 H11        12.6019    9.5512   20.1822 H       1  lig         0.4214
     12 C1          9.3617   10.4415   22.7680 C.ar    1  lig        -0.0999
     13 C2         11.4357   11.5775   23.0329 C.ar    1  lig        -0.0999
     14 C3          9.9150    9.7518   21.7245 C.ar    1  lig        -0.1787
     15 C4         11.9918   10.9155   21.9551 C.ar    1  lig        -0.1787
     16 C5         10.1189   11.3633   23.4234 C.ar    1  lig        -0.1394
     17 C6         11.1915    9.9936   21.2906 C.ar    1  lig         0.1292
     18 C7         10.0355   10.0800   25.9364 C.2     1  lig         0.9321
     19 C8          9.5213   12.1161   24.5969 C.3     1  lig        -0.0452
     20 C9          9.8844   11.5833   25.9834 C.3     1  lig        -0.0740
     21 N1         11.1240   12.2376   26.4004 N.4     1  lig        -0.8252
     22 O1          9.0009    9.4541   26.1560 O.co2   1  lig        -0.7573
     23 O2         11.1369    9.4970   25.7222 O.co2   1  lig        -0.7573
     24 O3         11.6434    9.3001   20.3231 O.3     1  lig        -0.4913
@<TRIPOS>BOND
     1     1    12    1
     2     2    13    1
     3     3    14    1
     4     4    15    1
     5     5    19    1
     6     6    19    1
     7     7    20    1
     8     8    21    1
     9     9    21    1
    10    10    21    1
    11    11    24    1
    12    12    14   ar
    13    12    16   ar
    14    13    15   ar
    15    13    16   ar
    16    14    17   ar
    17    15    17   ar
    18    16    19    1
    19    17    24    1
    20    18    20    1
    21    18    22    1
    22    18    23    1
    23    19    20    1
    24    20    21    1
@<TRIPOS>SUBSTRUCTURE
     1 lig         1 TEMP              0 ****  ****    0 ROOT


########## Name:		ligand
########## HA_RMSDs:		10.7379
########## HA_RMSDh:		10.6446
########## HA_RMSDm:		8.2888
########## Cluster Size:	1
##########    Grid Score:          -16.888372
##########      Grid_vdw:          -17.433300
##########       Grid_es:            0.544927
##########    Int_energy:            6.830095

@<TRIPOS>MOLECULE
ligand
 24 24 1 0 0
SMALL
No Charge or Current Charge


@<TRIPOS>ATOM
      1 H1         18.4155   14.8457   26.8206 H       1  lig         0.1340
      2 H2         14.2518   14.0258   26.3661 H       1  lig         0.1340
      3 H3         18.8944   13.1739   25.1104 H       1  lig         0.1475
      4 H4         14.7314   12.3007   24.6741 H       1  lig         0.1475
      5 H5         15.0016   15.3659   28.1660 H       1  lig         0.0877
      6 H6         16.6706   15.4703   28.6288 H       1  lig         0.0877
      7 H7         15.1505   17.5640   27.6101 H       1  lig         0.0966
      8 H8         15.2895   16.5581   25.3840 H       1  lig         0.4431
      9 H9         16.1871   17.9535   25.3957 H       1  lig         0.4431
     10 H10        16.9526   16.4778   25.4994 H       1  lig         0.4431
     11 H11        16.3554   11.4456   23.4821 H       1  lig         0.4214
     12 C1         17.6001   14.2911   26.3631 C.ar    1  lig        -0.0999
     13 C2         15.2833   13.8230   26.0879 C.ar    1  lig        -0.0999
     14 C3         17.8654   13.3570   25.3999 C.ar    1  lig        -0.1787
     15 C4         15.5424   12.8490   25.1427 C.ar    1  lig        -0.1787
     16 C5         16.3063   14.5238   26.7162 C.ar    1  lig        -0.1394
     17 C6         16.8729   12.6169   24.8140 C.ar    1  lig         0.1292
     18 C7         17.2335   17.7357   27.8903 C.2     1  lig         0.9321
     19 C8         16.0009   15.5747   27.7665 C.3     1  lig        -0.0452
     20 C9         16.0430   17.0260   27.2871 C.3     1  lig        -0.0740
     21 N1         16.1076   17.0099   25.8262 N.4     1  lig        -0.8252
     22 O1         18.2071   17.0153   28.0997 O.co2   1  lig        -0.7573
     23 O2         17.2334   18.9637   28.1915 O.co2   1  lig        -0.7573
     24 O3         17.1957   11.7770   23.9131 O.3     1  lig        -0.4913
@<TRIPOS>BOND
     1     1    12    1
     2     2    13    1
     3     3    14    1
     4     4    15    1
     5     5    19    1
     6     6    19    1
     7     7    20    1
     8     8    21    1
     9     9    21    1
    10    10    21    1
    11    11    24    1
    12    12    14   ar
    13    12    16   ar
    14    13    15   ar
    15    13    16   ar
    16    14    17   ar
    17    15    17   ar
    18    16    19    1
    19    17    24    1
    20    18    20    1
    21    18    22    1
    22    18    23    1
    23    19    20    1
    24    20    21    1
@<TRIPOS>SUBSTRUCTURE
     1 lig         1 TEMP              0 ****  ****    0 ROOT


########## Name:		ligand
########## HA_RMSDs:		11.6698
########## HA_RMSDh:		11.6228
########## HA_RMSDm:		9.4596
########## Cluster Size:	1
##########    Grid Score:          -16.857079
##########      Grid_vdw:          -16.856920
##########       Grid_es:           -0.000158
##########    Int_energy:            1.131944

@<TRIPOS>MOLECULE
ligand
 24 24 1 0 0
SMALL
No Charge or Current Charge


@<TRIPOS>ATOM
      1 H1         12.5229   12.6452   24.8617 H       1  lig         0.1340
      2 H2         11.6698    9.8913   21.7146 H       1  lig         0.1340
      3 H3         14.9049   12.2728   24.4929 H       1  lig         0.1475
      4 H4         14.0730    9.4727   21.3702 H       1  lig         0.1475
      5 H5         10.3118   12.5980   23.6200 H       1  lig         0.0877
      6 H6          9.8913   11.2198   22.6534 H       1  lig         0.0877
      7 H7         10.6100   10.6745   25.5340 H       1  lig         0.0966
      8 H8          9.9994    8.9143   23.9478 H       1  lig         0.4431
      9 H9          8.8061    9.0366   25.0941 H       1  lig         0.4431
     10 H10         8.5742    9.7038   23.5857 H       1  lig         0.4431
     11 H11        16.3458   11.0376   23.6365 H       1  lig         0.4214
     12 C1         12.8487   11.9432   24.0982 C.ar    1  lig        -0.0999
     13 C2         12.3965   10.4101   22.3354 C.ar    1  lig        -0.0999
     14 C3         14.1839   11.7366   23.8856 C.ar    1  lig        -0.1787
     15 C4         13.7418   10.1635   22.1391 C.ar    1  lig        -0.1787
     16 C5         11.9479   11.2748   23.3271 C.ar    1  lig        -0.1394
     17 C6         14.6404   10.8438   22.9525 C.ar    1  lig         0.1292
     18 C7          8.7949   11.7360   25.3742 C.2     1  lig         0.9321
     19 C8         10.4654   11.5155   23.5398 C.3     1  lig        -0.0452
     20 C9          9.8517   10.8417   24.7675 C.3     1  lig        -0.0740
     21 N1          9.2929    9.5602   24.3385 N.4     1  lig        -0.8252
     22 O1          7.8292   11.9545   24.6460 O.co2   1  lig        -0.7573
     23 O2          8.8956   12.2526   26.5239 O.co2   1  lig        -0.7573
     24 O3         15.8982   10.7173   22.8005 O.3     1  lig        -0.4913
@<TRIPOS>BOND
     1     1    12    1
     2     2    13    1
     3     3    14    1
     4     4    15    1
     5     5    19    1
     6     6    19    1
     7     7    20    1
     8     8    21    1
     9     9    21    1
    10    10    21    1
    11    11    24    1
    12    12    14   ar
    13    12    16   ar
    14    13    15   ar
    15    13    16   ar
    16    14    17   ar
    17    15    17   ar
    18    16    19    1
    19    17    24    1
    20    18    20    1
    21    18    22    1
    22    18    23    1
    23    19    20    1
    24    20    21    1
@<TRIPOS>SUBSTRUCTURE
     1 lig         1 TEMP              0 ****  ****    0 ROOT


########## Name:		ligand
########## HA_RMSDs:		11.4738
########## HA_RMSDh:		11.4231
########## HA_RMSDm:		8.4795
########## Cluster Size:	1
##########    Grid Score:          -16.849670
##########      Grid_vdw:          -14.849078
##########       Grid_es:           -2.000592
##########    Int_energy:            1.468763

@<TRIPOS>MOLECULE
ligand
 24 24 1 0 0
SMALL
No Charge or Current Charge


@<TRIPOS>ATOM
      1 H1         18.7099   17.3227   29.0835 H       1  lig         0.1340
      2 H2         18.4082   13.8031   26.6884 H       1  lig         0.1340
      3 H3         16.7548   18.2258   27.9384 H       1  lig         0.1475
      4 H4         16.4635   14.7300   25.4934 H       1  lig         0.1475
      5 H5         19.7570   15.1114   29.7364 H       1  lig         0.0877
      6 H6         19.9335   13.8516   28.5564 H       1  lig         0.0877
      7 H7         21.1896   16.0010   27.2770 H       1  lig         0.0966
      8 H8         21.9509   13.6859   27.4956 H       1  lig         0.4431
      9 H9         23.1802   14.6978   27.9622 H       1  lig         0.4431
     10 H10        22.2673   13.9194   29.1177 H       1  lig         0.4431
     11 H11        15.4279   16.7721   25.1560 H       1  lig         0.4214
     12 C1         18.2313   16.7475   28.2950 C.ar    1  lig        -0.0999
     13 C2         18.0397   14.7911   26.9538 C.ar    1  lig        -0.0999
     14 C3         17.1315   17.2491   27.6550 C.ar    1  lig        -0.1787
     15 C4         16.9525   15.3051   26.2732 C.ar    1  lig        -0.1787
     16 C5         18.6945   15.5172   27.9420 C.ar    1  lig        -0.1394
     17 C6         16.5112   16.5712   26.6392 C.ar    1  lig         0.1292
     18 C7         21.6923   16.5710   29.2440 C.2     1  lig         0.9321
     19 C8         19.8994   14.9427   28.6626 C.3     1  lig        -0.0452
     20 C9         21.2558   15.5170   28.2525 C.3     1  lig        -0.0740
     21 N1         22.2073   14.4082   28.1895 N.4     1  lig        -0.8252
     22 O1         21.6487   17.7234   28.8190 O.co2   1  lig        -0.7573
     23 O2         22.1031   16.3035   30.4096 O.co2   1  lig        -0.7573
     24 O3         15.4826   17.0951   26.1018 O.3     1  lig        -0.4913
@<TRIPOS>BOND
     1     1    12    1
     2     2    13    1
     3     3    14    1
     4     4    15    1
     5     5    19    1
     6     6    19    1
     7     7    20    1
     8     8    21    1
     9     9    21    1
    10    10    21    1
    11    11    24    1
    12    12    14   ar
    13    12    16   ar
    14    13    15   ar
    15    13    16   ar
    16    14    17   ar
    17    15    17   ar
    18    16    19    1
    19    17    24    1
    20    18    20    1
    21    18    22    1
    22    18    23    1
    23    19    20    1
    24    20    21    1
@<TRIPOS>SUBSTRUCTURE
     1 lig         1 TEMP              0 ****  ****    0 ROOT


########## Name:		ligand
########## HA_RMSDs:		12.2664
########## HA_RMSDh:		12.2073
########## HA_RMSDm:		8.8448
########## Cluster Size:	1
##########    Grid Score:          -16.845797
##########      Grid_vdw:          -16.120213
##########       Grid_es:           -0.725585
##########    Int_energy:            3.172498

@<TRIPOS>MOLECULE
ligand
 24 24 1 0 0
SMALL
No Charge or Current Charge


@<TRIPOS>ATOM
      1 H1         14.0469   17.0143   29.3529 H       1  lig         0.1340
      2 H2         17.1248   16.4624   26.4482 H       1  lig         0.1340
      3 H3         12.9916   14.9586   28.5723 H       1  lig         0.1475
      4 H4         16.0376   14.4121   25.6215 H       1  lig         0.1475
      5 H5         16.7662   18.6399   27.5615 H       1  lig         0.0877
      6 H6         15.5648   18.8645   28.7931 H       1  lig         0.0877
      7 H7         17.7441   18.9244   29.8559 H       1  lig         0.0966
      8 H8         18.9227   17.6799   28.1098 H       1  lig         0.4431
      9 H9         19.2451   16.9751   29.5769 H       1  lig         0.4431
     10 H10        18.1368   16.2745   28.5495 H       1  lig         0.4431
     11 H11        14.2987   13.1222   25.9181 H       1  lig         0.4214
     12 C1         14.4896   16.4575   28.5310 C.ar    1  lig        -0.0999
     13 C2         16.1991   16.1259   26.9091 C.ar    1  lig        -0.0999
     14 C3         13.9030   15.3015   28.0949 C.ar    1  lig        -0.1787
     15 C4         15.5934   14.9784   26.4340 C.ar    1  lig        -0.1787
     16 C5         15.6385   16.8785   27.9346 C.ar    1  lig        -0.1394
     17 C6         14.4110   14.5806   27.0468 C.ar    1  lig         0.1292
     18 C7         16.7885   17.2441   30.6988 C.2     1  lig         0.9321
     19 C8         16.3091   18.1468   28.4273 C.3     1  lig        -0.0452
     20 C9         17.3780   17.9586   29.5044 C.3     1  lig        -0.0740
     21 N1         18.4784   17.2002   28.9107 N.4     1  lig        -0.8252
     22 O1         16.2583   17.9818   31.5266 O.co2   1  lig        -0.7573
     23 O2         16.8555   15.9924   30.8646 O.co2   1  lig        -0.7573
     24 O3         13.8185   13.5057   26.7080 O.3     1  lig        -0.4913
@<TRIPOS>BOND
     1     1    12    1
     2     2    13    1
     3     3    14    1
     4     4    15    1
     5     5    19    1
     6     6    19    1
     7     7    20    1
     8     8    21    1
     9     9    21    1
    10    10    21    1
    11    11    24    1
    12    12    14   ar
    13    12    16   ar
    14    13    15   ar
    15    13    16   ar
    16    14    17   ar
    17    15    17   ar
    18    16    19    1
    19    17    24    1
    20    18    20    1
    21    18    22    1
    22    18    23    1
    23    19    20    1
    24    20    21    1
@<TRIPOS>SUBSTRUCTURE
     1 lig         1 TEMP              0 ****  ****    0 ROOT


########## Name:		ligand
########## HA_RMSDs:		14.8353
########## HA_RMSDh:		14.7963
########## HA_RMSDm:		13.0434
########## Cluster Size:	1
##########    Grid Score:          -16.810135
##########      Grid_vdw:          -15.777624
##########       Grid_es:           -1.032511
##########    Int_energy:            2.618587

@<TRIPOS>MOLECULE
ligand
 24 24 1 0 0
SMALL
No Charge or Current Charge


@<TRIPOS>ATOM
      1 H1         21.6591    4.9272   12.4931 H       1  lig         0.1340
      2 H2         25.3807    6.2115   14.1410 H       1  lig         0.1340
      3 H3         21.4604    7.0775   11.3592 H       1  lig         0.1475
      4 H4         25.1622    8.4039   13.0389 H       1  lig         0.1475
      5 H5         24.2143    4.2635   15.0299 H       1  lig         0.0877
      6 H6         22.6793    3.7281   14.4233 H       1  lig         0.0877
      7 H7         23.8350    2.8251   12.3545 H       1  lig         0.0966
      8 H8         23.4036    1.4502   14.3320 H       1  lig         0.4431
      9 H9         24.8505    0.9866   13.6655 H       1  lig         0.4431
     10 H10        24.8377    1.9529   15.0221 H       1  lig         0.4431
     11 H11        22.2548    8.8924   10.9719 H       1  lig         0.4214
     12 C1         22.4300    5.6819   12.6261 C.ar    1  lig        -0.0999
     13 C2         24.5062    6.4160   13.5277 C.ar    1  lig        -0.0999
     14 C3         22.3239    6.8866   11.9871 C.ar    1  lig        -0.1787
     15 C4         24.3896    7.6511   12.9191 C.ar    1  lig        -0.1787
     16 C5         23.5203    5.4437   13.4054 C.ar    1  lig        -0.1394
     17 C6         23.2576    7.8762   12.1447 C.ar    1  lig         0.1292
     18 C7         25.7639    3.4388   12.9456 C.2     1  lig         0.9321
     19 C8         23.6581    4.1018   14.0991 C.3     1  lig        -0.0452
     20 C9         24.3583    3.0061   13.2945 C.3     1  lig        -0.0740
     21 N1         24.3537    1.7883   14.1042 N.4     1  lig        -0.8252
     22 O1         25.8645    4.0416   11.8793 O.co2   1  lig        -0.7573
     23 O2         26.7710    3.1811   13.6655 O.co2   1  lig        -0.7573
     24 O3         23.0990    8.9654   11.5045 O.3     1  lig        -0.4913
@<TRIPOS>BOND
     1     1    12    1
     2     2    13    1
     3     3    14    1
     4     4    15    1
     5     5    19    1
     6     6    19    1
     7     7    20    1
     8     8    21    1
     9     9    21    1
    10    10    21    1
    11    11    24    1
    12    12    14   ar
    13    12    16   ar
    14    13    15   ar
    15    13    16   ar
    16    14    17   ar
    17    15    17   ar
    18    16    19    1
    19    17    24    1
    20    18    20    1
    21    18    22    1
    22    18    23    1
    23    19    20    1
    24    20    21    1
@<TRIPOS>SUBSTRUCTURE
     1 lig         1 TEMP              0 ****  ****    0 ROOT


########## Name:		ligand
########## HA_RMSDs:		11.5638
########## HA_RMSDh:		11.4901
########## HA_RMSDm:		9.6341
########## Cluster Size:	1
##########    Grid Score:          -16.804653
##########      Grid_vdw:          -16.720793
##########       Grid_es:           -0.083861
##########    Int_energy:            6.405417

@<TRIPOS>MOLECULE
ligand
 24 24 1 0 0
SMALL
No Charge or Current Charge


@<TRIPOS>ATOM
      1 H1         12.8536    9.5186   20.1084 H       1  lig         0.1340
      2 H2         10.7729   10.9345   23.5553 H       1  lig         0.1340
      3 H3         10.7555    8.6092   19.2600 H       1  lig         0.1475
      4 H4          8.6600    9.9750   22.7281 H       1  lig         0.1475
      5 H5         13.7889   11.2727   21.5671 H       1  lig         0.0877
      6 H6         13.0523   11.7004   23.0787 H       1  lig         0.0877
      7 H7         15.2161   10.1159   22.9617 H       1  lig         0.0966
      8 H8         14.0590    8.4259   21.6231 H       1  lig         0.4431
      9 H9         14.4302    7.7723   23.1023 H       1  lig         0.4431
     10 H10        12.8747    8.2799   22.7902 H       1  lig         0.4431
     11 H11         8.7200    8.5307   19.4524 H       1  lig         0.4214
     12 C1         11.9439    9.6199   20.6948 C.ar    1  lig        -0.0999
     13 C2         10.7622   10.4068   22.6046 C.ar    1  lig        -0.0999
     14 C3         10.7650    9.1157   20.2190 C.ar    1  lig        -0.1787
     15 C4          9.5736    9.8664   22.1523 C.ar    1  lig        -0.1787
     16 C5         11.9487   10.2629   21.8946 C.ar    1  lig        -0.1394
     17 C6          9.5996    9.1978   20.9340 C.ar    1  lig         0.1292
     18 C7         13.9469    9.9570   24.6382 C.2     1  lig         0.9321
     19 C8         13.2470   10.8460   22.4192 C.3     1  lig        -0.0452
     20 C9         14.1699    9.8673   23.1459 C.3     1  lig        -0.0740
     21 N1         13.8847    8.5262   22.6373 N.4     1  lig        -0.8252
     22 O1         12.8057   10.2729   24.9675 O.co2   1  lig        -0.7573
     23 O2         14.8582    9.7584   25.4920 O.co2   1  lig        -0.7573
     24 O3          8.5382    8.7193   20.4184 O.3     1  lig        -0.4913
@<TRIPOS>BOND
     1     1    12    1
     2     2    13    1
     3     3    14    1
     4     4    15    1
     5     5    19    1
     6     6    19    1
     7     7    20    1
     8     8    21    1
     9     9    21    1
    10    10    21    1
    11    11    24    1
    12    12    14   ar
    13    12    16   ar
    14    13    15   ar
    15    13    16   ar
    16    14    17   ar
    17    15    17   ar
    18    16    19    1
    19    17    24    1
    20    18    20    1
    21    18    22    1
    22    18    23    1
    23    19    20    1
    24    20    21    1
@<TRIPOS>SUBSTRUCTURE
     1 lig         1 TEMP              0 ****  ****    0 ROOT


########## Name:		ligand
########## HA_RMSDs:		11.6757
########## HA_RMSDh:		11.5932
########## HA_RMSDm:		8.5043
########## Cluster Size:	1
##########    Grid Score:          -16.801422
##########      Grid_vdw:          -13.811182
##########       Grid_es:           -2.990240
##########    Int_energy:            2.580898

@<TRIPOS>MOLECULE
ligand
 24 24 1 0 0
SMALL
No Charge or Current Charge


@<TRIPOS>ATOM
      1 H1         18.0148   17.5269   29.6016 H       1  lig         0.1340
      2 H2         18.3629   14.1245   27.0485 H       1  lig         0.1340
      3 H3         16.3599   18.4601   28.0721 H       1  lig         0.1475
      4 H4         16.7292   15.0841   25.4739 H       1  lig         0.1475
      5 H5         19.2526   15.7337   30.3118 H       1  lig         0.0877
      6 H6         19.0612   14.1525   29.6236 H       1  lig         0.0877
      7 H7         20.8306   15.1805   27.8037 H       1  lig         0.0966
      8 H8         21.0434   13.1477   29.1489 H       1  lig         0.4431
      9 H9         22.4682   13.9939   29.2322 H       1  lig         0.4431
     10 H10        21.3954   14.0549   30.5050 H       1  lig         0.4431
     11 H11        15.6011   16.9504   25.0486 H       1  lig         0.4214
     12 C1         17.7470   16.9847   28.6982 C.ar    1  lig        -0.0999
     13 C2         17.9195   15.0938   27.2639 C.ar    1  lig        -0.0999
     14 C3         16.8152   17.5031   27.8416 C.ar    1  lig        -0.1787
     15 C4         17.0092   15.6267   26.3713 C.ar    1  lig        -0.1787
     16 C5         18.3086   15.7790   28.4092 C.ar    1  lig        -0.1394
     17 C6         16.4650   16.8679   26.6797 C.ar    1  lig         0.1292
     18 C7         21.4386   16.5031   29.3295 C.2     1  lig         0.9321
     19 C8         19.3254   15.1852   29.3655 C.3     1  lig        -0.0452
     20 C9         20.7793   15.2149   28.8930 C.3     1  lig        -0.0740
     21 N1         21.4536   14.0457   29.4559 N.4     1  lig        -0.8252
     22 O1         21.4067   16.7102   30.5405 O.co2   1  lig        -0.7573
     23 O2         21.9571   17.3282   28.5237 O.co2   1  lig        -0.7573
     24 O3         15.5780   17.4044   25.9403 O.3     1  lig        -0.4913
@<TRIPOS>BOND
     1     1    12    1
     2     2    13    1
     3     3    14    1
     4     4    15    1
     5     5    19    1
     6     6    19    1
     7     7    20    1
     8     8    21    1
     9     9    21    1
    10    10    21    1
    11    11    24    1
    12    12    14   ar
    13    12    16   ar
    14    13    15   ar
    15    13    16   ar
    16    14    17   ar
    17    15    17   ar
    18    16    19    1
    19    17    24    1
    20    18    20    1
    21    18    22    1
    22    18    23    1
    23    19    20    1
    24    20    21    1
@<TRIPOS>SUBSTRUCTURE
     1 lig         1 TEMP              0 ****  ****    0 ROOT


########## Name:		ligand
########## HA_RMSDs:		13.0515
########## HA_RMSDh:		12.9916
########## HA_RMSDm:		9.1207
########## Cluster Size:	1
##########    Grid Score:          -16.778540
##########      Grid_vdw:          -15.921833
##########       Grid_es:           -0.856707
##########    Int_energy:            2.063662

@<TRIPOS>MOLECULE
ligand
 24 24 1 0 0
SMALL
No Charge or Current Charge


@<TRIPOS>ATOM
      1 H1         13.9140   15.5675   29.1788 H       1  lig         0.1340
      2 H2         17.0171   18.3152   30.1972 H       1  lig         0.1340
      3 H3         14.4419   15.9013   26.8211 H       1  lig         0.1475
      4 H4         17.5224   18.6949   27.8161 H       1  lig         0.1475
      5 H5         15.7006   17.4381   31.8786 H       1  lig         0.0877
      6 H6         14.0638   16.9852   31.5229 H       1  lig         0.0877
      7 H7         14.8058   14.5723   31.2809 H       1  lig         0.0966
      8 H8         13.9716   15.4919   33.3893 H       1  lig         0.4431
      9 H9         15.1631   14.3867   33.7239 H       1  lig         0.4431
     10 H10        15.5040   16.0157   33.7932 H       1  lig         0.4431
     11 H11        16.9819   18.0537   25.8014 H       1  lig         0.4214
     12 C1         14.7022   16.2598   28.8938 C.ar    1  lig        -0.0999
     13 C2         16.4420   17.7891   29.4389 C.ar    1  lig        -0.0999
     14 C3         15.0040   16.4448   27.5726 C.ar    1  lig        -0.1787
     15 C4         16.7285   18.0139   28.1059 C.ar    1  lig        -0.1787
     16 C5         15.4168   16.9372   29.8336 C.ar    1  lig        -0.1394
     17 C6         15.9714   17.3249   27.1657 C.ar    1  lig         0.1292
     18 C7         16.8394   14.9712   31.6711 C.2     1  lig         0.9321
     19 C8         15.1050   16.7205   31.3022 C.3     1  lig        -0.0452
     20 C9         15.3772   15.3151   31.8395 C.3     1  lig        -0.0740
     21 N1         14.9756   15.2913   33.2455 N.4     1  lig        -0.8252
     22 O1         17.1181   14.4269   30.6049 O.co2   1  lig        -0.7573
     23 O2         17.7131   15.1893   32.5588 O.co2   1  lig        -0.7573
     24 O3         16.2070   17.4313   25.9189 O.3     1  lig        -0.4913
@<TRIPOS>BOND
     1     1    12    1
     2     2    13    1
     3     3    14    1
     4     4    15    1
     5     5    19    1
     6     6    19    1
     7     7    20    1
     8     8    21    1
     9     9    21    1
    10    10    21    1
    11    11    24    1
    12    12    14   ar
    13    12    16   ar
    14    13    15   ar
    15    13    16   ar
    16    14    17   ar
    17    15    17   ar
    18    16    19    1
    19    17    24    1
    20    18    20    1
    21    18    22    1
    22    18    23    1
    23    19    20    1
    24    20    21    1
@<TRIPOS>SUBSTRUCTURE
     1 lig         1 TEMP              0 ****  ****    0 ROOT


########## Name:		ligand
########## HA_RMSDs:		11.9342
########## HA_RMSDh:		11.8630
########## HA_RMSDm:		7.8499
########## Cluster Size:	1
##########    Grid Score:          -16.769875
##########      Grid_vdw:          -14.641432
##########       Grid_es:           -2.128442
##########    Int_energy:            2.102759

@<TRIPOS>MOLECULE
ligand
 24 24 1 0 0
SMALL
No Charge or Current Charge


@<TRIPOS>ATOM
      1 H1         14.9659   12.5571   27.7452 H       1  lig         0.1340
      2 H2         16.2601   16.4962   26.7333 H       1  lig         0.1340
      3 H3         15.2400   11.9064   25.4106 H       1  lig         0.1475
      4 H4         16.4913   15.8592   24.3648 H       1  lig         0.1475
      5 H5         15.5146   14.0724   29.4446 H       1  lig         0.0877
      6 H6         16.2594   15.6118   29.1514 H       1  lig         0.0877
      7 H7         13.2592   15.1345   28.7913 H       1  lig         0.0966
      8 H8         14.2385   17.0279   27.5900 H       1  lig         0.4431
      9 H9         13.3259   17.6088   28.8481 H       1  lig         0.4431
     10 H10        14.9851   17.5565   28.9861 H       1  lig         0.4431
     11 H11        16.5346   14.0794   23.0515 H       1  lig         0.4214
     12 C1         15.2945   13.2914   27.0141 C.ar    1  lig        -0.0999
     13 C2         16.0257   15.4789   26.4287 C.ar    1  lig        -0.0999
     14 C3         15.4543   12.9278   25.7053 C.ar    1  lig        -0.1787
     15 C4         16.1521   15.1332   25.0969 C.ar    1  lig        -0.1787
     16 C5         15.5738   14.5722   27.3806 C.ar    1  lig        -0.1394
     17 C6         15.8420   13.8247   24.7453 C.ar    1  lig         0.1292
     18 C7         13.9451   15.7212   30.6971 C.2     1  lig         0.9321
     19 C8         15.4222   14.9783   28.8342 C.3     1  lig        -0.0452
     20 C9         14.1129   15.6805   29.1955 C.3     1  lig        -0.0740
     21 N1         14.1559   17.0245   28.6206 N.4     1  lig        -0.8252
     22 O1         14.8958   16.2072   31.3058 O.co2   1  lig        -0.7573
     23 O2         12.9292   15.2665   31.2972 O.co2   1  lig        -0.7573
     24 O3         15.9848   13.4083   23.5505 O.3     1  lig        -0.4913
@<TRIPOS>BOND
     1     1    12    1
     2     2    13    1
     3     3    14    1
     4     4    15    1
     5     5    19    1
     6     6    19    1
     7     7    20    1
     8     8    21    1
     9     9    21    1
    10    10    21    1
    11    11    24    1
    12    12    14   ar
    13    12    16   ar
    14    13    15   ar
    15    13    16   ar
    16    14    17   ar
    17    15    17   ar
    18    16    19    1
    19    17    24    1
    20    18    20    1
    21    18    22    1
    22    18    23    1
    23    19    20    1
    24    20    21    1
@<TRIPOS>SUBSTRUCTURE
     1 lig         1 TEMP              0 ****  ****    0 ROOT


########## Name:		ligand
########## HA_RMSDs:		11.8702
########## HA_RMSDh:		11.8211
########## HA_RMSDm:		9.9884
########## Cluster Size:	1
##########    Grid Score:          -16.755686
##########      Grid_vdw:          -17.495558
##########       Grid_es:            0.739872
##########    Int_energy:            1.189586

@<TRIPOS>MOLECULE
ligand
 24 24 1 0 0
SMALL
No Charge or Current Charge


@<TRIPOS>ATOM
      1 H1         18.9854   18.2180   30.4343 H       1  lig         0.1340
      2 H2         18.4199   15.0272   27.6567 H       1  lig         0.1340
      3 H3         21.3922   18.0579   30.0729 H       1  lig         0.1475
      4 H4         20.8528   14.8267   27.3247 H       1  lig         0.1475
      5 H5         16.5950   15.8294   28.8593 H       1  lig         0.0877
      6 H6         16.8050   16.6751   30.3596 H       1  lig         0.0877
      7 H7         17.0978   18.7847   28.6155 H       1  lig         0.0966
      8 H8         15.5827   18.5845   30.5263 H       1  lig         0.4431
      9 H9         14.7254   19.1493   29.2229 H       1  lig         0.4431
     10 H10        14.5973   17.5486   29.6652 H       1  lig         0.4431
     11 H11        22.8514   17.3705   28.4922 H       1  lig         0.4214
     12 C1         19.3816   17.4669   29.7556 C.ar    1  lig        -0.0999
     13 C2         19.0893   15.6916   28.1982 C.ar    1  lig        -0.0999
     14 C3         20.7304   17.3785   29.5469 C.ar    1  lig        -0.1787
     15 C4         20.4525   15.5669   28.0103 C.ar    1  lig        -0.1787
     16 C5         18.5545   16.6182   29.0859 C.ar    1  lig        -0.1394
     17 C6         21.2762   16.4323   28.7206 C.ar    1  lig         0.1292
     18 C7         15.9080   17.6572   27.2888 C.2     1  lig         0.9321
     19 C8         17.0556   16.7246   29.2931 C.3     1  lig        -0.0452
     20 C9         16.3870   17.9604   28.6900 C.3     1  lig        -0.0740
     21 N1         15.2810   18.3404   29.5680 N.4     1  lig        -0.8252
     22 O1         16.6485   18.0625   26.3954 O.co2   1  lig        -0.7573
     23 O2         14.8197   17.0645   27.0375 O.co2   1  lig        -0.7573
     24 O3         22.5398   16.4221   28.5637 O.3     1  lig        -0.4913
@<TRIPOS>BOND
     1     1    12    1
     2     2    13    1
     3     3    14    1
     4     4    15    1
     5     5    19    1
     6     6    19    1
     7     7    20    1
     8     8    21    1
     9     9    21    1
    10    10    21    1
    11    11    24    1
    12    12    14   ar
    13    12    16   ar
    14    13    15   ar
    15    13    16   ar
    16    14    17   ar
    17    15    17   ar
    18    16    19    1
    19    17    24    1
    20    18    20    1
    21    18    22    1
    22    18    23    1
    23    19    20    1
    24    20    21    1
@<TRIPOS>SUBSTRUCTURE
     1 lig         1 TEMP              0 ****  ****    0 ROOT


########## Name:		ligand
########## HA_RMSDs:		11.8970
########## HA_RMSDh:		11.8777
########## HA_RMSDm:		10.0677
########## Cluster Size:	1
##########    Grid Score:          -16.745792
##########      Grid_vdw:          -17.366701
##########       Grid_es:            0.620909
##########    Int_energy:            3.079868

@<TRIPOS>MOLECULE
ligand
 24 24 1 0 0
SMALL
No Charge or Current Charge


@<TRIPOS>ATOM
      1 H1         17.9679   17.1064   29.2643 H       1  lig         0.1340
      2 H2         13.7831   17.5321   28.5422 H       1  lig         0.1340
      3 H3         17.5519   17.4200   31.6470 H       1  lig         0.1475
      4 H4         13.3619   17.8993   30.9415 H       1  lig         0.1475
      5 H5         15.3951   17.6768   26.7209 H       1  lig         0.0877
      6 H6         17.1085   17.5605   26.9688 H       1  lig         0.0877
      7 H7         16.1847   15.6106   25.7048 H       1  lig         0.0966
      8 H8         14.0308   15.5388   26.8635 H       1  lig         0.4431
      9 H9         14.7654   14.0584   27.0111 H       1  lig         0.4431
     10 H10        14.7875   15.1232   28.2919 H       1  lig         0.4431
     11 H11        16.1956   17.6339   33.1366 H       1  lig         0.4214
     12 C1         16.9556   17.2854   29.6176 C.ar    1  lig        -0.0999
     13 C2         14.6178   17.5184   29.2390 C.ar    1  lig        -0.0999
     14 C3         16.7187   17.4562   30.9538 C.ar    1  lig        -0.1787
     15 C4         14.3722   17.7320   30.5819 C.ar    1  lig        -0.1787
     16 C5         15.9052   17.3223   28.7526 C.ar    1  lig        -0.1394
     17 C6         15.4641   17.7089   31.4417 C.ar    1  lig         0.1292
     18 C7         17.3214   14.9104   27.3372 C.2     1  lig         0.9321
     19 C8         16.1553   17.1104   27.2715 C.3     1  lig        -0.0452
     20 C9         16.1259   15.6584   26.7932 C.3     1  lig        -0.0740
     21 N1         14.8674   15.0667   27.2457 N.4     1  lig        -0.8252
     22 O1         18.3505   15.0406   26.6778 O.co2   1  lig        -0.7573
     23 O2         17.2758   14.1790   28.3676 O.co2   1  lig        -0.7573
     24 O3         15.3192   17.8408   32.6999 O.3     1  lig        -0.4913
@<TRIPOS>BOND
     1     1    12    1
     2     2    13    1
     3     3    14    1
     4     4    15    1
     5     5    19    1
     6     6    19    1
     7     7    20    1
     8     8    21    1
     9     9    21    1
    10    10    21    1
    11    11    24    1
    12    12    14   ar
    13    12    16   ar
    14    13    15   ar
    15    13    16   ar
    16    14    17   ar
    17    15    17   ar
    18    16    19    1
    19    17    24    1
    20    18    20    1
    21    18    22    1
    22    18    23    1
    23    19    20    1
    24    20    21    1
@<TRIPOS>SUBSTRUCTURE
     1 lig         1 TEMP              0 ****  ****    0 ROOT


########## Name:		ligand
########## HA_RMSDs:		12.3836
########## HA_RMSDh:		12.3155
########## HA_RMSDm:		10.3674
########## Cluster Size:	1
##########    Grid Score:          -16.687460
##########      Grid_vdw:          -15.939892
##########       Grid_es:           -0.747568
##########    Int_energy:            1.793500

@<TRIPOS>MOLECULE
ligand
 24 24 1 0 0
SMALL
No Charge or Current Charge


@<TRIPOS>ATOM
      1 H1         17.8667   18.6279   29.0707 H       1  lig         0.1340
      2 H2         16.6424   14.7677   30.4181 H       1  lig         0.1340
      3 H3         20.0560   17.7026   28.5232 H       1  lig         0.1475
      4 H4         18.8673   13.8378   29.9140 H       1  lig         0.1475
      5 H5         15.1269   16.4978   30.4682 H       1  lig         0.0877
      6 H6         15.8103   18.0067   30.9847 H       1  lig         0.0877
      7 H7         15.6733   18.8314   28.5652 H       1  lig         0.0966
      8 H8         13.9802   19.3208   30.2624 H       1  lig         0.4431
      9 H9         13.2236   19.1007   28.8023 H       1  lig         0.4431
     10 H10        13.2036   17.8800   29.9355 H       1  lig         0.4431
     11 H11        20.7836   14.3337   28.9831 H       1  lig         0.4214
     12 C1         18.0748   17.5790   29.2662 C.ar    1  lig        -0.0999
     13 C2         17.4112   15.4166   30.0051 C.ar    1  lig        -0.0999
     14 C3         19.2998   17.0562   28.9551 C.ar    1  lig        -0.1787
     15 C4         18.6579   14.8871   29.7320 C.ar    1  lig        -0.1787
     16 C5         17.1260   16.7615   29.7994 C.ar    1  lig        -0.1394
     17 C6         19.6150   15.7472   29.2065 C.ar    1  lig         0.1292
     18 C7         14.7558   17.0687   27.8595 C.2     1  lig         0.9321
     19 C8         15.7568   17.3271   30.1256 C.3     1  lig        -0.0452
     20 C9         15.0426   18.0431   28.9788 C.3     1  lig        -0.0740
     21 N1         13.8133   18.6256   29.5155 N.4     1  lig        -0.8252
     22 O1         15.2143   17.3945   26.7667 O.co2   1  lig        -0.7573
     23 O2         14.0731   16.0152   28.0108 O.co2   1  lig        -0.7573
     24 O3         20.7707   15.3285   28.8744 O.3     1  lig        -0.4913
@<TRIPOS>BOND
     1     1    12    1
     2     2    13    1
     3     3    14    1
     4     4    15    1
     5     5    19    1
     6     6    19    1
     7     7    20    1
     8     8    21    1
     9     9    21    1
    10    10    21    1
    11    11    24    1
    12    12    14   ar
    13    12    16   ar
    14    13    15   ar
    15    13    16   ar
    16    14    17   ar
    17    15    17   ar
    18    16    19    1
    19    17    24    1
    20    18    20    1
    21    18    22    1
    22    18    23    1
    23    19    20    1
    24    20    21    1
@<TRIPOS>SUBSTRUCTURE
     1 lig         1 TEMP              0 ****  ****    0 ROOT


########## Name:		ligand
########## HA_RMSDs:		10.9436
########## HA_RMSDh:		10.8208
########## HA_RMSDm:		8.2515
########## Cluster Size:	1
##########    Grid Score:          -16.662264
##########      Grid_vdw:          -11.691780
##########       Grid_es:           -4.970483
##########    Int_energy:            2.315989

@<TRIPOS>MOLECULE
ligand
 24 24 1 0 0
SMALL
No Charge or Current Charge


@<TRIPOS>ATOM
      1 H1         21.4306   13.9645   24.3422 H       1  lig         0.1340
      2 H2         19.5858   10.8515   26.6052 H       1  lig         0.1340
      3 H3         22.8848   12.3017   23.3081 H       1  lig         0.1475
      4 H4         21.0849    9.1738   25.6017 H       1  lig         0.1475
      5 H5         19.7194   13.5535   27.2648 H       1  lig         0.0877
      6 H6         19.7670   14.5541   25.8480 H       1  lig         0.0877
      7 H7         17.6511   12.5267   26.6367 H       1  lig         0.0966
      8 H8         18.3075   12.0465   24.3290 H       1  lig         0.4431
      9 H9         16.8225   12.7865   24.3181 H       1  lig         0.4431
     10 H10        18.1854   13.6636   23.9340 H       1  lig         0.4431
     11 H11        23.7872    9.9078   24.2297 H       1  lig         0.4214
     12 C1         21.3489   12.9199   24.6315 C.ar    1  lig        -0.0999
     13 C2         20.3296   11.1674   25.8775 C.ar    1  lig        -0.0999
     14 C3         22.1593   11.9846   24.0493 C.ar    1  lig        -0.1787
     15 C4         21.1702   10.2199   25.3253 C.ar    1  lig        -0.1787
     16 C5         20.4336   12.5154   25.5543 C.ar    1  lig        -0.1394
     17 C6         22.1090   10.6615   24.4003 C.ar    1  lig         0.1292
     18 C7         17.2501   14.5721   26.3166 C.2     1  lig         0.9321
     19 C8         19.5144   13.5424   26.1879 C.3     1  lig        -0.0452
     20 C9         18.0172   13.3148   25.9770 C.3     1  lig        -0.0740
     21 N1         17.8194   12.9221   24.5822 N.4     1  lig        -0.8252
     22 O1         17.6084   15.1264   27.3534 O.co2   1  lig        -0.7573
     23 O2         16.2926   15.0140   25.6189 O.co2   1  lig        -0.7573
     24 O3         22.8840    9.8469   23.8028 O.3     1  lig        -0.4913
@<TRIPOS>BOND
     1     1    12    1
     2     2    13    1
     3     3    14    1
     4     4    15    1
     5     5    19    1
     6     6    19    1
     7     7    20    1
     8     8    21    1
     9     9    21    1
    10    10    21    1
    11    11    24    1
    12    12    14   ar
    13    12    16   ar
    14    13    15   ar
    15    13    16   ar
    16    14    17   ar
    17    15    17   ar
    18    16    19    1
    19    17    24    1
    20    18    20    1
    21    18    22    1
    22    18    23    1
    23    19    20    1
    24    20    21    1
@<TRIPOS>SUBSTRUCTURE
     1 lig         1 TEMP              0 ****  ****    0 ROOT


########## Name:		ligand
########## HA_RMSDs:		12.4715
########## HA_RMSDh:		12.4269
########## HA_RMSDm:		10.0212
########## Cluster Size:	1
##########    Grid Score:          -16.649242
##########      Grid_vdw:          -13.722275
##########       Grid_es:           -2.926968
##########    Int_energy:            4.992085

@<TRIPOS>MOLECULE
ligand
 24 24 1 0 0
SMALL
No Charge or Current Charge


@<TRIPOS>ATOM
      1 H1         13.4471   14.2313   30.1773 H       1  lig         0.1340
      2 H2         16.2873   14.8722   27.0567 H       1  lig         0.1340
      3 H3         12.1667   12.8044   28.6695 H       1  lig         0.1475
      4 H4         14.9729   13.4726   25.5132 H       1  lig         0.1475
      5 H5         15.7738   15.0355   30.6193 H       1  lig         0.0877
      6 H6         16.7927   15.5797   29.3246 H       1  lig         0.0877
      7 H7         15.7630   17.4563   30.6455 H       1  lig         0.0966
      8 H8         13.6138   16.3535   31.0351 H       1  lig         0.4431
      9 H9         13.3399   17.8002   30.2702 H       1  lig         0.4431
     10 H10        13.2778   16.3810   29.4004 H       1  lig         0.4431
     11 H11        11.8616   12.1781   26.7351 H       1  lig         0.4214
     12 C1         13.7889   14.0785   29.1567 C.ar    1  lig        -0.0999
     13 C2         15.3635   14.4160   27.4048 C.ar    1  lig        -0.0999
     14 C3         13.0757   13.2745   28.3108 C.ar    1  lig        -0.1787
     15 C4         14.6300   13.6381   26.5296 C.ar    1  lig        -0.1787
     16 C5         14.9342   14.6587   28.7045 C.ar    1  lig        -0.1394
     17 C6         13.4544   13.0731   27.0099 C.ar    1  lig         0.1292
     18 C7         15.4643   17.7689   28.5815 C.2     1  lig         0.9321
     19 C8         15.7442   15.5330   29.6429 C.3     1  lig        -0.0452
     20 C9         15.2272   16.9590   29.8355 C.3     1  lig        -0.0740
     21 N1         13.8045   16.8756   30.1633 N.4     1  lig        -0.8252
     22 O1         14.7130   17.4980   27.6472 O.co2   1  lig        -0.7573
     23 O2         16.3784   18.6359   28.4745 O.co2   1  lig        -0.7573
     24 O3         12.7485   12.2982   26.2871 O.3     1  lig        -0.4913
@<TRIPOS>BOND
     1     1    12    1
     2     2    13    1
     3     3    14    1
     4     4    15    1
     5     5    19    1
     6     6    19    1
     7     7    20    1
     8     8    21    1
     9     9    21    1
    10    10    21    1
    11    11    24    1
    12    12    14   ar
    13    12    16   ar
    14    13    15   ar
    15    13    16   ar
    16    14    17   ar
    17    15    17   ar
    18    16    19    1
    19    17    24    1
    20    18    20    1
    21    18    22    1
    22    18    23    1
    23    19    20    1
    24    20    21    1
@<TRIPOS>SUBSTRUCTURE
     1 lig         1 TEMP              0 ****  ****    0 ROOT


########## Name:		ligand
########## HA_RMSDs:		11.4592
########## HA_RMSDh:		11.3915
########## HA_RMSDm:		8.2185
########## Cluster Size:	1
##########    Grid Score:          -16.620075
##########      Grid_vdw:          -13.533955
##########       Grid_es:           -3.086120
##########    Int_energy:            1.457675

@<TRIPOS>MOLECULE
ligand
 24 24 1 0 0
SMALL
No Charge or Current Charge


@<TRIPOS>ATOM
      1 H1         13.7661   11.2536   26.1298 H       1  lig         0.1340
      2 H2         15.8748   14.8739   26.9432 H       1  lig         0.1340
      3 H3         14.5039   11.3877   23.8089 H       1  lig         0.1475
      4 H4         16.5822   15.0422   24.5894 H       1  lig         0.1475
      5 H5         13.8733   11.9877   28.2791 H       1  lig         0.0877
      6 H6         15.1795   13.0054   28.7975 H       1  lig         0.0877
      7 H7         13.5747   15.0178   28.1781 H       1  lig         0.0966
      8 H8         14.2586   14.3378   30.4268 H       1  lig         0.4431
      9 H9         12.6490   14.7394   30.4575 H       1  lig         0.4431
     10 H10        13.1003   13.1361   30.4401 H       1  lig         0.4431
     11 H11        16.7500   13.7523   22.7483 H       1  lig         0.4214
     12 C1         14.3771   12.0916   25.8042 C.ar    1  lig        -0.0999
     13 C2         15.5659   14.1071   26.2367 C.ar    1  lig        -0.0999
     14 C3         14.7968   12.1665   24.5046 C.ar    1  lig        -0.1787
     15 C4         15.9622   14.2139   24.9173 C.ar    1  lig        -0.1787
     16 C5         14.7552   13.0666   26.6755 C.ar    1  lig        -0.1394
     17 C6         15.5466   13.2160   24.0436 C.ar    1  lig         0.1292
     18 C7         11.9314   13.7020   28.0545 C.2     1  lig         0.9321
     19 C8         14.3141   12.9794   28.1242 C.3     1  lig        -0.0452
     20 C9         13.3088   14.0383   28.5783 C.3     1  lig        -0.0740
     21 N1         13.3355   14.0787   30.0399 N.4     1  lig        -0.8252
     22 O1         11.6367   14.2543   26.9968 O.co2   1  lig        -0.7573
     23 O2         11.1226   12.9414   28.6596 O.co2   1  lig        -0.7573
     24 O3         15.9135   13.2082   22.8243 O.3     1  lig        -0.4913
@<TRIPOS>BOND
     1     1    12    1
     2     2    13    1
     3     3    14    1
     4     4    15    1
     5     5    19    1
     6     6    19    1
     7     7    20    1
     8     8    21    1
     9     9    21    1
    10    10    21    1
    11    11    24    1
    12    12    14   ar
    13    12    16   ar
    14    13    15   ar
    15    13    16   ar
    16    14    17   ar
    17    15    17   ar
    18    16    19    1
    19    17    24    1
    20    18    20    1
    21    18    22    1
    22    18    23    1
    23    19    20    1
    24    20    21    1
@<TRIPOS>SUBSTRUCTURE
     1 lig         1 TEMP              0 ****  ****    0 ROOT


########## Name:		ligand
########## HA_RMSDs:		14.2101
########## HA_RMSDh:		14.1337
########## HA_RMSDm:		12.6563
########## Cluster Size:	1
##########    Grid Score:          -16.617901
##########      Grid_vdw:          -14.473449
##########       Grid_es:           -2.144453
##########    Int_energy:            1.256022

@<TRIPOS>MOLECULE
ligand
 24 24 1 0 0
SMALL
No Charge or Current Charge


@<TRIPOS>ATOM
      1 H1         22.1649    5.0682   13.5312 H       1  lig         0.1340
      2 H2         25.2797    7.3411   15.3609 H       1  lig         0.1340
      3 H3         22.1453    6.6543   11.6784 H       1  lig         0.1475
      4 H4         25.2307    8.9744   13.5173 H       1  lig         0.1475
      5 H5         23.8294    5.6952   16.6503 H       1  lig         0.0877
      6 H6         22.7751    4.6045   15.8080 H       1  lig         0.0877
      7 H7         25.3308    4.0779   14.6865 H       1  lig         0.0966
      8 H8         23.5419    2.5021   15.2376 H       1  lig         0.4431
      9 H9         24.9428    1.9954   15.9683 H       1  lig         0.4431
     10 H10        23.7758    2.7720   16.8681 H       1  lig         0.4431
     11 H11        23.5296    8.1200   10.6550 H       1  lig         0.4214
     12 C1         22.8369    5.9225   13.5435 C.ar    1  lig        -0.0999
     13 C2         24.5781    7.2009   14.5419 C.ar    1  lig        -0.0999
     14 C3         22.8318    6.8105   12.5033 C.ar    1  lig        -0.1787
     15 C4         24.5536    8.1260   13.5159 C.ar    1  lig        -0.1787
     16 C5         23.7070    6.1180   14.5719 C.ar    1  lig        -0.1394
     17 C6         23.6427    7.9144   12.4877 C.ar    1  lig         0.1292
     18 C7         25.9240    4.4235   16.6804 C.2     1  lig         0.9321
     19 C8         23.7362    5.1253   15.7185 C.3     1  lig        -0.0452
     20 C9         24.8544    4.0836   15.6680 C.3     1  lig        -0.0740
     21 N1         24.2559    2.7759   15.9335 N.4     1  lig        -0.8252
     22 O1         25.6961    4.0238   17.8201 O.co2   1  lig        -0.7573
     23 O2         26.9601    5.0924   16.4013 O.co2   1  lig        -0.7573
     24 O3         23.5932    8.6873   11.4770 O.3     1  lig        -0.4913
@<TRIPOS>BOND
     1     1    12    1
     2     2    13    1
     3     3    14    1
     4     4    15    1
     5     5    19    1
     6     6    19    1
     7     7    20    1
     8     8    21    1
     9     9    21    1
    10    10    21    1
    11    11    24    1
    12    12    14   ar
    13    12    16   ar
    14    13    15   ar
    15    13    16   ar
    16    14    17   ar
    17    15    17   ar
    18    16    19    1
    19    17    24    1
    20    18    20    1
    21    18    22    1
    22    18    23    1
    23    19    20    1
    24    20    21    1
@<TRIPOS>SUBSTRUCTURE
     1 lig         1 TEMP              0 ****  ****    0 ROOT


########## Name:		ligand
########## HA_RMSDs:		11.7149
########## HA_RMSDh:		11.7128
########## HA_RMSDm:		10.2729
########## Cluster Size:	1
##########    Grid Score:          -16.588369
##########      Grid_vdw:          -15.550629
##########       Grid_es:           -1.037740
##########    Int_energy:            2.200184

@<TRIPOS>MOLECULE
ligand
 24 24 1 0 0
SMALL
No Charge or Current Charge


@<TRIPOS>ATOM
      1 H1         13.9841   15.2533   30.5888 H       1  lig         0.1340
      2 H2         16.9785   17.3939   28.4285 H       1  lig         0.1340
      3 H3         12.8945   17.3729   31.1076 H       1  lig         0.1475
      4 H4         15.9109   19.5417   28.9908 H       1  lig         0.1475
      5 H5         17.2977   15.0798   28.9881 H       1  lig         0.0877
      6 H6         16.2139   14.1949   30.0141 H       1  lig         0.0877
      7 H7         14.5960   14.0255   28.0156 H       1  lig         0.0966
      8 H8         16.1201   12.2423   28.7112 H       1  lig         0.4431
      9 H9         16.0378   12.2572   27.0541 H       1  lig         0.4431
     10 H10        17.3579   12.9225   27.8219 H       1  lig         0.4431
     11 H11        12.8183   19.3785   30.8107 H       1  lig         0.4214
     12 C1         14.4198   16.1854   30.2381 C.ar    1  lig        -0.0999
     13 C2         16.0744   17.3987   29.0327 C.ar    1  lig        -0.0999
     14 C3         13.8080   17.3750   30.5230 C.ar    1  lig        -0.1787
     15 C4         15.4868   18.6089   29.3484 C.ar    1  lig        -0.1787
     16 C5         15.5609   16.1929   29.4961 C.ar    1  lig        -0.1394
     17 C6         14.3336   18.5752   30.1236 C.ar    1  lig         0.1292
     18 C7         15.9467   14.9440   26.6819 C.2     1  lig         0.9321
     19 C8         16.2335   14.8766   29.1553 C.3     1  lig        -0.0452
     20 C9         15.6777   14.1422   27.9347 C.3     1  lig        -0.0740
     21 N1         16.3132   12.8263   27.8802 N.4     1  lig        -0.8252
     22 O1         15.0786   15.7689   26.4053 O.co2   1  lig        -0.7573
     23 O2         16.9618   14.7703   25.9482 O.co2   1  lig        -0.7573
     24 O3         13.6985   19.6402   30.4125 O.3     1  lig        -0.4913
@<TRIPOS>BOND
     1     1    12    1
     2     2    13    1
     3     3    14    1
     4     4    15    1
     5     5    19    1
     6     6    19    1
     7     7    20    1
     8     8    21    1
     9     9    21    1
    10    10    21    1
    11    11    24    1
    12    12    14   ar
    13    12    16   ar
    14    13    15   ar
    15    13    16   ar
    16    14    17   ar
    17    15    17   ar
    18    16    19    1
    19    17    24    1
    20    18    20    1
    21    18    22    1
    22    18    23    1
    23    19    20    1
    24    20    21    1
@<TRIPOS>SUBSTRUCTURE
     1 lig         1 TEMP              0 ****  ****    0 ROOT


########## Name:		ligand
########## HA_RMSDs:		11.0289
########## HA_RMSDh:		10.9793
########## HA_RMSDm:		8.3696
########## Cluster Size:	1
##########    Grid Score:          -16.587055
##########      Grid_vdw:          -13.151715
##########       Grid_es:           -3.435339
##########    Int_energy:            3.216094

@<TRIPOS>MOLECULE
ligand
 24 24 1 0 0
SMALL
No Charge or Current Charge


@<TRIPOS>ATOM
      1 H1         15.0243   13.6232   26.6543 H       1  lig         0.1340
      2 H2         13.3310   10.2075   24.7356 H       1  lig         0.1340
      3 H3         16.1546   14.1895   24.5686 H       1  lig         0.1475
      4 H4         14.5093   10.7459   22.6401 H       1  lig         0.1475
      5 H5         13.5928   10.4609   27.3311 H       1  lig         0.0877
      6 H6         13.8498   12.0531   27.9709 H       1  lig         0.0877
      7 H7         11.5482   12.0000   28.1321 H       1  lig         0.0966
      8 H8         11.4360    9.7179   27.2570 H       1  lig         0.4431
      9 H9         10.2141   10.6106   26.5766 H       1  lig         0.4431
     10 H10        11.5893   10.2853   25.6948 H       1  lig         0.4431
     11 H11        16.8594   13.3851   22.7073 H       1  lig         0.4214
     12 C1         14.9081   12.9813   25.7847 C.ar    1  lig        -0.0999
     13 C2         13.9694   11.0869   24.6927 C.ar    1  lig        -0.0999
     14 C3         15.5364   13.2995   24.6123 C.ar    1  lig        -0.1787
     15 C4         14.6312   11.3767   23.5149 C.ar    1  lig        -0.1787
     16 C5         14.1259   11.8683   25.8317 C.ar    1  lig        -0.1394
     17 C6         15.4391   12.5076   23.4989 C.ar    1  lig         0.1292
     18 C7         11.5591   12.9446   26.2468 C.2     1  lig         0.9321
     19 C8         13.4063   11.5205   27.1210 C.3     1  lig        -0.0452
     20 C9         11.8965   11.7623   27.1259 C.3     1  lig        -0.0740
     21 N1         11.2488   10.5382   26.6561 N.4     1  lig        -0.8252
     22 O1         11.7005   14.0403   26.7854 O.co2   1  lig        -0.7573
     23 O2         11.1333   12.8324   25.0615 O.co2   1  lig        -0.7573
     24 O3         16.0397   12.8775   22.4388 O.3     1  lig        -0.4913
@<TRIPOS>BOND
     1     1    12    1
     2     2    13    1
     3     3    14    1
     4     4    15    1
     5     5    19    1
     6     6    19    1
     7     7    20    1
     8     8    21    1
     9     9    21    1
    10    10    21    1
    11    11    24    1
    12    12    14   ar
    13    12    16   ar
    14    13    15   ar
    15    13    16   ar
    16    14    17   ar
    17    15    17   ar
    18    16    19    1
    19    17    24    1
    20    18    20    1
    21    18    22    1
    22    18    23    1
    23    19    20    1
    24    20    21    1
@<TRIPOS>SUBSTRUCTURE
     1 lig         1 TEMP              0 ****  ****    0 ROOT


########## Name:		ligand
########## HA_RMSDs:		18.8165
########## HA_RMSDh:		18.7884
########## HA_RMSDm:		17.5027
########## Cluster Size:	1
##########    Grid Score:          -16.552114
##########      Grid_vdw:          -10.276918
##########       Grid_es:           -6.275196
##########    Int_energy:            3.705757

@<TRIPOS>MOLECULE
ligand
 24 24 1 0 0
SMALL
No Charge or Current Charge


@<TRIPOS>ATOM
      1 H1          4.0243    6.8777   28.4982 H       1  lig         0.1340
      2 H2          7.4195    7.4082   25.9670 H       1  lig         0.1340
      3 H3          2.5943    6.8927   26.5224 H       1  lig         0.1475
      4 H4          5.9764    7.4743   23.9715 H       1  lig         0.1475
      5 H5          6.3970    6.2882   29.2014 H       1  lig         0.0877
      6 H6          7.7407    6.9157   28.3007 H       1  lig         0.0877
      7 H7          7.7082    8.7064   29.6944 H       1  lig         0.0966
      8 H8          6.3760    7.3420   31.2274 H       1  lig         0.4431
      9 H9          5.8407    8.9105   31.3071 H       1  lig         0.4431
     10 H10         4.9734    7.7847   30.4383 H       1  lig         0.4431
     11 H11         2.4618    7.4595   24.4888 H       1  lig         0.4214
     12 C1          4.4638    7.0154   27.5135 C.ar    1  lig        -0.0999
     13 C2          6.3433    7.3039   26.0827 C.ar    1  lig        -0.0999
     14 C3          3.6649    7.0188   26.4035 C.ar    1  lig        -0.1787
     15 C4          5.5417    7.3490   24.9581 C.ar    1  lig        -0.1787
     16 C5          5.8078    7.1647   27.3580 C.ar    1  lig        -0.1394
     17 C6          4.1712    7.2139   25.1458 C.ar    1  lig         0.1292
     18 C7          6.0613    9.5431   28.6771 C.2     1  lig         0.9321
     19 C8          6.7042    7.1385   28.5815 C.3     1  lig        -0.0452
     20 C9          6.6913    8.4020   29.4426 C.3     1  lig        -0.0740
     21 N1          5.9499    8.0985   30.6661 N.4     1  lig        -0.8252
     22 O1          6.8263   10.1354   27.9192 O.co2   1  lig        -0.7573
     23 O2          4.8547    9.8940   28.8176 O.co2   1  lig        -0.7573
     24 O3          3.3669    7.1880   24.1589 O.3     1  lig        -0.4913
@<TRIPOS>BOND
     1     1    12    1
     2     2    13    1
     3     3    14    1
     4     4    15    1
     5     5    19    1
     6     6    19    1
     7     7    20    1
     8     8    21    1
     9     9    21    1
    10    10    21    1
    11    11    24    1
    12    12    14   ar
    13    12    16   ar
    14    13    15   ar
    15    13    16   ar
    16    14    17   ar
    17    15    17   ar
    18    16    19    1
    19    17    24    1
    20    18    20    1
    21    18    22    1
    22    18    23    1
    23    19    20    1
    24    20    21    1
@<TRIPOS>SUBSTRUCTURE
     1 lig         1 TEMP              0 ****  ****    0 ROOT


########## Name:		ligand
########## HA_RMSDs:		15.3281
########## HA_RMSDh:		15.3271
########## HA_RMSDm:		13.2526
########## Cluster Size:	1
##########    Grid Score:          -16.538029
##########      Grid_vdw:          -16.150417
##########       Grid_es:           -0.387611
##########    Int_energy:            5.626425

@<TRIPOS>MOLECULE
ligand
 24 24 1 0 0
SMALL
No Charge or Current Charge


@<TRIPOS>ATOM
      1 H1          7.7756    8.8517   24.3814 H       1  lig         0.1340
      2 H2          6.5719    7.8002   20.4240 H       1  lig         0.1340
      3 H3          9.8557    9.7441   23.4728 H       1  lig         0.1475
      4 H4          8.6921    8.6544   19.5051 H       1  lig         0.1475
      5 H5          5.4377    8.3712   23.8357 H       1  lig         0.0877
      6 H6          4.9480    7.7866   22.2771 H       1  lig         0.0877
      7 H7          5.1575    6.1640   24.4212 H       1  lig         0.0966
      8 H8          7.5563    6.5913   24.6452 H       1  lig         0.4431
      9 H9          7.3344    5.0000   24.2310 H       1  lig         0.4431
     10 H10         7.8142    6.0961   23.0722 H       1  lig         0.4431
     11 H11        10.7247    9.3529   20.1573 H       1  lig         0.4214
     12 C1          7.9665    8.7966   23.3127 C.ar    1  lig        -0.0999
     13 C2          7.3126    8.2258   21.0970 C.ar    1  lig        -0.0999
     14 C3          9.1297    9.3011   22.7998 C.ar    1  lig        -0.1787
     15 C4          8.5014    8.6961   20.5728 C.ar    1  lig        -0.1787
     16 C5          7.0545    8.2501   22.4628 C.ar    1  lig        -0.1394
     17 C6          9.4240    9.2313   21.4639 C.ar    1  lig         0.1292
     18 C7          5.2763    5.3221   22.4915 C.2     1  lig         0.9321
     19 C8          5.7513    7.7094   23.0198 C.3     1  lig        -0.0452
     20 C9          5.7969    6.2738   23.5441 C.3     1  lig        -0.0740
     21 N1          7.1828    5.9756   23.9033 N.4     1  lig        -0.8252
     22 O1          5.5755    5.6212   21.3375 O.co2   1  lig        -0.7573
     23 O2          4.5618    4.3131   22.7567 O.co2   1  lig        -0.7573
     24 O3         10.5199    9.7373   21.0584 O.3     1  lig        -0.4913
@<TRIPOS>BOND
     1     1    12    1
     2     2    13    1
     3     3    14    1
     4     4    15    1
     5     5    19    1
     6     6    19    1
     7     7    20    1
     8     8    21    1
     9     9    21    1
    10    10    21    1
    11    11    24    1
    12    12    14   ar
    13    12    16   ar
    14    13    15   ar
    15    13    16   ar
    16    14    17   ar
    17    15    17   ar
    18    16    19    1
    19    17    24    1
    20    18    20    1
    21    18    22    1
    22    18    23    1
    23    19    20    1
    24    20    21    1
@<TRIPOS>SUBSTRUCTURE
     1 lig         1 TEMP              0 ****  ****    0 ROOT


########## Name:		ligand
########## HA_RMSDs:		12.0046
########## HA_RMSDh:		11.9225
########## HA_RMSDm:		8.0632
########## Cluster Size:	1
##########    Grid Score:          -16.479975
##########      Grid_vdw:          -13.946653
##########       Grid_es:           -2.533321
##########    Int_energy:            1.104584

@<TRIPOS>MOLECULE
ligand
 24 24 1 0 0
SMALL
No Charge or Current Charge


@<TRIPOS>ATOM
      1 H1         14.1477   12.2184   27.3603 H       1  lig         0.1340
      2 H2         16.4745   15.7476   26.7719 H       1  lig         0.1340
      3 H3         14.5075   11.6345   25.0197 H       1  lig         0.1475
      4 H4         16.8000   15.1894   24.3946 H       1  lig         0.1475
      5 H5         15.2704   13.4933   29.2617 H       1  lig         0.0877
      6 H6         15.8120   15.1201   28.9960 H       1  lig         0.0877
      7 H7         12.8984   14.2837   28.5925 H       1  lig         0.0966
      8 H8         13.6535   16.3302   27.4842 H       1  lig         0.4431
      9 H9         12.6621   16.7433   28.7489 H       1  lig         0.4431
     10 H10        14.3135   16.8871   28.9125 H       1  lig         0.4431
     11 H11        16.3309   13.6897   22.8792 H       1  lig         0.4214
     12 C1         14.7251   12.8807   26.7203 C.ar    1  lig        -0.0999
     13 C2         16.0318   14.8386   26.3714 C.ar    1  lig        -0.0999
     14 C3         14.9330   12.5530   25.4088 C.ar    1  lig        -0.1787
     15 C4         16.2144   14.5377   25.0352 C.ar    1  lig        -0.1787
     16 C5         15.2691   14.0300   27.2062 C.ar    1  lig        -0.1394
     17 C6         15.6323   13.3687   24.5593 C.ar    1  lig         0.1292
     18 C7         13.4851   14.8696   30.5314 C.2     1  lig         0.9321
     19 C8         15.0637   14.3896   28.6654 C.3     1  lig        -0.0452
     20 C9         13.6743   14.9121   29.0324 C.3     1  lig        -0.0740
     21 N1         13.5598   16.2741   28.5123 N.4     1  lig        -0.8252
     22 O1         13.0107   13.8192   30.9583 O.co2   1  lig        -0.7573
     23 O2         13.7573   15.8395   31.2957 O.co2   1  lig        -0.7573
     24 O3         15.7984   12.9887   23.3554 O.3     1  lig        -0.4913
@<TRIPOS>BOND
     1     1    12    1
     2     2    13    1
     3     3    14    1
     4     4    15    1
     5     5    19    1
     6     6    19    1
     7     7    20    1
     8     8    21    1
     9     9    21    1
    10    10    21    1
    11    11    24    1
    12    12    14   ar
    13    12    16   ar
    14    13    15   ar
    15    13    16   ar
    16    14    17   ar
    17    15    17   ar
    18    16    19    1
    19    17    24    1
    20    18    20    1
    21    18    22    1
    22    18    23    1
    23    19    20    1
    24    20    21    1
@<TRIPOS>SUBSTRUCTURE
     1 lig         1 TEMP              0 ****  ****    0 ROOT


########## Name:		ligand
########## HA_RMSDs:		11.5203
########## HA_RMSDh:		11.5203
########## HA_RMSDm:		9.7392
########## Cluster Size:	1
##########    Grid Score:          -16.441980
##########      Grid_vdw:          -16.121771
##########       Grid_es:           -0.320210
##########    Int_energy:            1.841956

@<TRIPOS>MOLECULE
ligand
 24 24 1 0 0
SMALL
No Charge or Current Charge


@<TRIPOS>ATOM
      1 H1         24.6441   14.7348   28.5058 H       1  lig         0.1340
      2 H2         20.6379   15.6005   27.3157 H       1  lig         0.1340
      3 H3         24.6644   16.7969   29.8081 H       1  lig         0.1475
      4 H4         20.6690   17.7095   28.5886 H       1  lig         0.1475
      5 H5         23.4486   13.1325   27.3703 H       1  lig         0.0877
      6 H6         21.7193   13.1816   27.2372 H       1  lig         0.0877
      7 H7         23.4032   14.7467   25.2464 H       1  lig         0.0966
      8 H8         20.9747   15.0318   25.3363 H       1  lig         0.4431
      9 H9         21.3672   14.2415   23.9311 H       1  lig         0.4431
     10 H10        20.7540   13.3815   25.2191 H       1  lig         0.4431
     11 H11        21.9708   18.9971   29.7985 H       1  lig         0.4214
     12 C1         23.7694   15.3802   28.5103 C.ar    1  lig        -0.0999
     13 C2         21.5338   15.8792   27.8655 C.ar    1  lig        -0.0999
     14 C3         23.7761   16.5344   29.2441 C.ar    1  lig        -0.1787
     15 C4         21.5437   17.0672   28.5709 C.ar    1  lig        -0.1787
     16 C5         22.6487   15.0505   27.8117 C.ar    1  lig        -0.1394
     17 C6         22.7069   17.3904   29.2598 C.ar    1  lig         0.1292
     18 C7         23.3549   12.6673   24.8988 C.2     1  lig         0.9321
     19 C8         22.6236   13.7605   27.0140 C.3     1  lig        -0.0452
     20 C9         22.7447   13.9138   25.4975 C.3     1  lig        -0.0740
     21 N1         21.4052   14.1669   24.9680 N.4     1  lig        -0.8252
     22 O1         24.5686   12.5620   25.0619 O.co2   1  lig        -0.7573
     23 O2         22.6904   11.8083   24.2512 O.co2   1  lig        -0.7573
     24 O3         22.7809   18.4381   29.9797 O.3     1  lig        -0.4913
@<TRIPOS>BOND
     1     1    12    1
     2     2    13    1
     3     3    14    1
     4     4    15    1
     5     5    19    1
     6     6    19    1
     7     7    20    1
     8     8    21    1
     9     9    21    1
    10    10    21    1
    11    11    24    1
    12    12    14   ar
    13    12    16   ar
    14    13    15   ar
    15    13    16   ar
    16    14    17   ar
    17    15    17   ar
    18    16    19    1
    19    17    24    1
    20    18    20    1
    21    18    22    1
    22    18    23    1
    23    19    20    1
    24    20    21    1
@<TRIPOS>SUBSTRUCTURE
     1 lig         1 TEMP              0 ****  ****    0 ROOT


########## Name:		ligand
########## HA_RMSDs:		14.4414
########## HA_RMSDh:		14.4316
########## HA_RMSDm:		11.7665
########## Cluster Size:	1
##########    Grid Score:          -16.426212
##########      Grid_vdw:          -14.776076
##########       Grid_es:           -1.650136
##########    Int_energy:            6.166560

@<TRIPOS>MOLECULE
ligand
 24 24 1 0 0
SMALL
No Charge or Current Charge


@<TRIPOS>ATOM
      1 H1         10.4613   12.4166   28.0382 H       1  lig         0.1340
      2 H2          7.5737   10.8605   25.3077 H       1  lig         0.1340
      3 H3         11.7852   13.1896   26.1413 H       1  lig         0.1475
      4 H4          8.9302   11.5943   23.3867 H       1  lig         0.1475
      5 H5          8.0806   11.9182   28.6998 H       1  lig         0.0877
      6 H6          7.0646   10.9607   27.6694 H       1  lig         0.0877
      7 H7          8.4432    9.9051   29.7444 H       1  lig         0.0966
      8 H8         10.5954   10.4762   28.7301 H       1  lig         0.4431
      9 H9         10.4487    8.8241   28.7751 H       1  lig         0.4431
     10 H10        10.1905    9.6378   27.3448 H       1  lig         0.4431
     11 H11        10.8390   12.5350   22.8580 H       1  lig         0.4214
     12 C1         10.1178   12.2246   27.0249 C.ar    1  lig        -0.0999
     13 C2          8.5174   11.3711   25.4844 C.ar    1  lig        -0.0999
     14 C3         10.8555   12.6617   25.9594 C.ar    1  lig        -0.1787
     15 C4          9.2743   11.7729   24.4005 C.ar    1  lig        -0.1787
     16 C5          8.9470   11.5708   26.7914 C.ar    1  lig        -0.1394
     17 C6         10.4749   12.4209   24.6658 C.ar    1  lig         0.1292
     18 C7          7.8068    8.6402   28.1817 C.2     1  lig         0.9321
     19 C8          8.1105   11.1032   27.9672 C.3     1  lig        -0.0452
     20 C9          8.5974    9.8337   28.6667 C.3     1  lig        -0.0740
     21 N1         10.0242    9.6882   28.3811 N.4     1  lig        -0.8252
     22 O1          7.5273    8.6630   26.9851 O.co2   1  lig        -0.7573
     23 O2          7.4274    7.7015   28.9391 O.co2   1  lig        -0.7573
     24 O3         11.2053   12.8732   23.7259 O.3     1  lig        -0.4913
@<TRIPOS>BOND
     1     1    12    1
     2     2    13    1
     3     3    14    1
     4     4    15    1
     5     5    19    1
     6     6    19    1
     7     7    20    1
     8     8    21    1
     9     9    21    1
    10    10    21    1
    11    11    24    1
    12    12    14   ar
    13    12    16   ar
    14    13    15   ar
    15    13    16   ar
    16    14    17   ar
    17    15    17   ar
    18    16    19    1
    19    17    24    1
    20    18    20    1
    21    18    22    1
    22    18    23    1
    23    19    20    1
    24    20    21    1
@<TRIPOS>SUBSTRUCTURE
     1 lig         1 TEMP              0 ****  ****    0 ROOT


########## Name:		ligand
########## HA_RMSDs:		13.7727
########## HA_RMSDh:		13.7169
########## HA_RMSDm:		11.9211
########## Cluster Size:	1
##########    Grid Score:          -16.401354
##########      Grid_vdw:          -16.061865
##########       Grid_es:           -0.339488
##########    Int_energy:            1.742687

@<TRIPOS>MOLECULE
ligand
 24 24 1 0 0
SMALL
No Charge or Current Charge


@<TRIPOS>ATOM
      1 H1         22.4860    4.7875   13.9695 H       1  lig         0.1340
      2 H2         25.6289    7.3806   15.2400 H       1  lig         0.1340
      3 H3         21.9503    6.3678   12.1906 H       1  lig         0.1475
      4 H4         25.0611    9.0045   13.4766 H       1  lig         0.1475
      5 H5         23.6463    4.2370   15.8408 H       1  lig         0.0877
      6 H6         25.3469    4.4666   15.5844 H       1  lig         0.0877
      7 H7         24.0718    6.5715   17.2888 H       1  lig         0.0966
      8 H8         26.4743    6.3727   16.8702 H       1  lig         0.4431
      9 H9         26.1881    6.0887   18.4797 H       1  lig         0.4431
     10 H10        26.4691    4.8083   17.4520 H       1  lig         0.4431
     11 H11        22.1548    8.3650   11.5336 H       1  lig         0.4214
     12 C1         23.0536    5.7100   13.8766 C.ar    1  lig        -0.0999
     13 C2         24.8050    7.1673   14.5629 C.ar    1  lig        -0.0999
     14 C3         22.7588    6.5954   12.8766 C.ar    1  lig        -0.1787
     15 C4         24.4901    8.0875   13.5814 C.ar    1  lig        -0.1787
     16 C5         24.0754    5.9959   14.7292 C.ar    1  lig        -0.1394
     17 C6         23.4301    7.7810   12.7362 C.ar    1  lig         0.1292
     18 C7         23.8706    4.6977   18.2350 C.2     1  lig         0.9321
     19 C8         24.4248    5.0087   15.8266 C.3     1  lig        -0.0452
     20 C9         24.5573    5.5962   17.2321 C.3     1  lig        -0.0740
     21 N1         25.9837    5.7376   17.5221 N.4     1  lig        -0.8252
     22 O1         22.6589    4.8764   18.3374 O.co2   1  lig        -0.7573
     23 O2         24.4832    3.8481   18.9434 O.co2   1  lig        -0.7573
     24 O3         23.1099    8.5471   11.7709 O.3     1  lig        -0.4913
@<TRIPOS>BOND
     1     1    12    1
     2     2    13    1
     3     3    14    1
     4     4    15    1
     5     5    19    1
     6     6    19    1
     7     7    20    1
     8     8    21    1
     9     9    21    1
    10    10    21    1
    11    11    24    1
    12    12    14   ar
    13    12    16   ar
    14    13    15   ar
    15    13    16   ar
    16    14    17   ar
    17    15    17   ar
    18    16    19    1
    19    17    24    1
    20    18    20    1
    21    18    22    1
    22    18    23    1
    23    19    20    1
    24    20    21    1
@<TRIPOS>SUBSTRUCTURE
     1 lig         1 TEMP              0 ****  ****    0 ROOT


########## Name:		ligand
########## HA_RMSDs:		11.5086
########## HA_RMSDh:		11.4628
########## HA_RMSDm:		8.4236
########## Cluster Size:	1
##########    Grid Score:          -16.388968
##########      Grid_vdw:          -16.745026
##########       Grid_es:            0.356059
##########    Int_energy:            1.396208

@<TRIPOS>MOLECULE
ligand
 24 24 1 0 0
SMALL
No Charge or Current Charge


@<TRIPOS>ATOM
      1 H1         15.3000   13.4559   26.1764 H       1  lig         0.1340
      2 H2         13.3782   16.0158   28.9994 H       1  lig         0.1340
      3 H3         16.4898   15.3902   25.2868 H       1  lig         0.1475
      4 H4         14.5389   17.9814   28.0731 H       1  lig         0.1475
      5 H5         14.2358   12.5896   28.2579 H       1  lig         0.0877
      6 H6         13.2180   13.5990   29.2356 H       1  lig         0.0877
      7 H7         12.5932   12.5502   26.4367 H       1  lig         0.0966
      8 H8         11.8553   14.8694   26.6893 H       1  lig         0.4431
      9 H9         10.5251   13.8787   26.7340 H       1  lig         0.4431
     10 H10        11.1367   14.5052   28.1510 H       1  lig         0.4431
     11 H11        16.9116   17.3642   25.4434 H       1  lig         0.4214
     12 C1         15.1195   14.4421   26.5966 C.ar    1  lig        -0.0999
     13 C2         14.0653   15.8867   28.1664 C.ar    1  lig        -0.0999
     14 C3         15.7894   15.5277   26.1033 C.ar    1  lig        -0.1787
     15 C4         14.7064   16.9962   27.6495 C.ar    1  lig        -0.1787
     16 C5         14.2484   14.6184   27.6276 C.ar    1  lig        -0.1394
     17 C6         15.5757   16.7922   26.5844 C.ar    1  lig         0.1292
     18 C7         11.5999   11.8289   28.1514 C.2     1  lig         0.9321
     19 C8         13.5186   13.4165   28.1968 C.3     1  lig        -0.0452
     20 C9         12.2956   12.9465   27.4086 C.3     1  lig        -0.0740
     21 N1         11.4163   14.1002   27.2227 N.4     1  lig        -0.8252
     22 O1         11.9599   10.6985   27.8300 O.co2   1  lig        -0.7573
     23 O2         10.6952   12.0226   29.0133 O.co2   1  lig        -0.7573
     24 O3         16.2487   17.7512   26.0857 O.3     1  lig        -0.4913
@<TRIPOS>BOND
     1     1    12    1
     2     2    13    1
     3     3    14    1
     4     4    15    1
     5     5    19    1
     6     6    19    1
     7     7    20    1
     8     8    21    1
     9     9    21    1
    10    10    21    1
    11    11    24    1
    12    12    14   ar
    13    12    16   ar
    14    13    15   ar
    15    13    16   ar
    16    14    17   ar
    17    15    17   ar
    18    16    19    1
    19    17    24    1
    20    18    20    1
    21    18    22    1
    22    18    23    1
    23    19    20    1
    24    20    21    1
@<TRIPOS>SUBSTRUCTURE
     1 lig         1 TEMP              0 ****  ****    0 ROOT


########## Name:		ligand
########## HA_RMSDs:		15.8492
########## HA_RMSDh:		15.8284
########## HA_RMSDm:		13.6255
########## Cluster Size:	1
##########    Grid Score:          -16.342882
##########      Grid_vdw:          -14.750497
##########       Grid_es:           -1.592385
##########    Int_energy:            1.891007

@<TRIPOS>MOLECULE
ligand
 24 24 1 0 0
SMALL
No Charge or Current Charge


@<TRIPOS>ATOM
      1 H1          7.3026    7.4142   24.0567 H       1  lig         0.1340
      2 H2          7.3205    5.1661   20.4289 H       1  lig         0.1340
      3 H3          5.0972    6.5058   24.5663 H       1  lig         0.1475
      4 H4          5.0720    4.2837   20.9132 H       1  lig         0.1475
      5 H5          9.3824    6.9531   22.8260 H       1  lig         0.0877
      6 H6          9.3810    6.2139   21.2562 H       1  lig         0.0877
      7 H7          7.8972    8.8067   21.3678 H       1  lig         0.0966
      8 H8          8.3937    7.5535   19.3258 H       1  lig         0.4431
      9 H9          9.2087    8.9979   19.2765 H       1  lig         0.4431
     10 H10        10.0268    7.6005   19.6671 H       1  lig         0.4431
     11 H11         3.2829    4.7140   22.2895 H       1  lig         0.4214
     12 C1          6.8227    6.7347   23.3570 C.ar    1  lig        -0.0999
     13 C2          6.8144    5.4670   21.3431 C.ar    1  lig        -0.0999
     14 C3          5.5884    6.2195   23.6428 C.ar    1  lig        -0.1787
     15 C4          5.5507    4.9719   21.6026 C.ar    1  lig        -0.1787
     16 C5          7.4390    6.3650   22.2010 C.ar    1  lig        -0.1394
     17 C6          4.9350    5.3801   22.7799 C.ar    1  lig         0.1292
     18 C7          9.9100    9.1515   21.8938 C.2     1  lig         0.9321
     19 C8          8.8182    6.9127   21.8869 C.3     1  lig        -0.0452
     20 C9          8.8521    8.2958   21.2357 C.3     1  lig        -0.0740
     21 N1          9.1187    8.1094   19.8099 N.4     1  lig        -0.8252
     22 O1         11.0073    8.6102   22.0104 O.co2   1  lig        -0.7573
     23 O2          9.6919   10.3200   22.3250 O.co2   1  lig        -0.7573
     24 O3          3.7950    4.9280   23.1224 O.3     1  lig        -0.4913
@<TRIPOS>BOND
     1     1    12    1
     2     2    13    1
     3     3    14    1
     4     4    15    1
     5     5    19    1
     6     6    19    1
     7     7    20    1
     8     8    21    1
     9     9    21    1
    10    10    21    1
    11    11    24    1
    12    12    14   ar
    13    12    16   ar
    14    13    15   ar
    15    13    16   ar
    16    14    17   ar
    17    15    17   ar
    18    16    19    1
    19    17    24    1
    20    18    20    1
    21    18    22    1
    22    18    23    1
    23    19    20    1
    24    20    21    1
@<TRIPOS>SUBSTRUCTURE
     1 lig         1 TEMP              0 ****  ****    0 ROOT


########## Name:		ligand
########## HA_RMSDs:		11.4116
########## HA_RMSDh:		11.3644
########## HA_RMSDm:		10.0928
########## Cluster Size:	1
##########    Grid Score:          -16.274460
##########      Grid_vdw:          -12.841753
##########       Grid_es:           -3.432706
##########    Int_energy:            3.210484

@<TRIPOS>MOLECULE
ligand
 24 24 1 0 0
SMALL
No Charge or Current Charge


@<TRIPOS>ATOM
      1 H1         13.2639   10.3529   24.6480 H       1  lig         0.1340
      2 H2         14.8338    8.6118   21.0815 H       1  lig         0.1340
      3 H3         11.1602   10.7567   23.4817 H       1  lig         0.1475
      4 H4         12.7290    9.0619   19.8830 H       1  lig         0.1475
      5 H5         16.3053    9.6025   23.0362 H       1  lig         0.0877
      6 H6         15.5482    9.7872   24.5864 H       1  lig         0.0877
      7 H7         16.4381    7.6599   24.8446 H       1  lig         0.0966
      8 H8         17.3415    7.6113   22.5712 H       1  lig         0.4431
      9 H9         16.6467    6.1410   22.9005 H       1  lig         0.4431
     10 H10        15.8337    7.2460   21.9557 H       1  lig         0.4431
     11 H11        10.8332   10.7218   20.2503 H       1  lig         0.4214
     12 C1         13.1621   10.0711   23.6030 C.ar    1  lig        -0.0999
     13 C2         14.0143    9.0978   21.6057 C.ar    1  lig        -0.0999
     14 C3         11.9817   10.2914   22.9481 C.ar    1  lig        -0.1787
     15 C4         12.8401    9.3520   20.9230 C.ar    1  lig        -0.1787
     16 C5         14.1871    9.4783   22.9316 C.ar    1  lig        -0.1394
     17 C6         11.8160    9.9759   21.6256 C.ar    1  lig         0.1292
     18 C7         14.5011    7.0190   24.3115 C.2     1  lig         0.9321
     19 C8         15.4919    9.2084   23.6565 C.3     1  lig        -0.0452
     20 C9         15.7851    7.7418   23.9745 C.3     1  lig        -0.0740
     21 N1         16.4432    7.1569   22.8069 N.4     1  lig        -0.8252
     22 O1         14.0696    7.2409   25.4407 O.co2   1  lig        -0.7573
     23 O2         13.9220    6.2215   23.5194 O.co2   1  lig        -0.7573
     24 O3         10.6827   10.1959   21.0884 O.3     1  lig        -0.4913
@<TRIPOS>BOND
     1     1    12    1
     2     2    13    1
     3     3    14    1
     4     4    15    1
     5     5    19    1
     6     6    19    1
     7     7    20    1
     8     8    21    1
     9     9    21    1
    10    10    21    1
    11    11    24    1
    12    12    14   ar
    13    12    16   ar
    14    13    15   ar
    15    13    16   ar
    16    14    17   ar
    17    15    17   ar
    18    16    19    1
    19    17    24    1
    20    18    20    1
    21    18    22    1
    22    18    23    1
    23    19    20    1
    24    20    21    1
@<TRIPOS>SUBSTRUCTURE
     1 lig         1 TEMP              0 ****  ****    0 ROOT


########## Name:		ligand
########## HA_RMSDs:		11.7428
########## HA_RMSDh:		11.6571
########## HA_RMSDm:		9.9109
########## Cluster Size:	1
##########    Grid Score:          -16.244497
##########      Grid_vdw:          -15.042951
##########       Grid_es:           -1.201546
##########    Int_energy:            1.169034

@<TRIPOS>MOLECULE
ligand
 24 24 1 0 0
SMALL
No Charge or Current Charge


@<TRIPOS>ATOM
      1 H1          9.9638   10.7418   24.2450 H       1  lig         0.1340
      2 H2         14.0136   10.1545   23.0326 H       1  lig         0.1340
      3 H3          9.2408   10.1401   21.9946 H       1  lig         0.1475
      4 H4         13.2933    9.5944   20.7442 H       1  lig         0.1475
      5 H5         11.6409   10.7037   25.8514 H       1  lig         0.0877
      6 H6         13.2575   10.1644   25.5254 H       1  lig         0.0877
      7 H7         12.5850   12.9552   24.6072 H       1  lig         0.0966
      8 H8         14.7874   11.9289   24.3193 H       1  lig         0.4431
      9 H9         14.9189   13.1786   25.4027 H       1  lig         0.4431
     10 H10        14.8764   11.6077   25.9548 H       1  lig         0.4431
     11 H11        11.4297    9.7909   19.3992 H       1  lig         0.4214
     12 C1         10.7033   10.4988   23.4862 C.ar    1  lig        -0.0999
     13 C2         12.9534   10.1585   22.7905 C.ar    1  lig        -0.0999
     14 C3         10.3004   10.1558   22.2250 C.ar    1  lig        -0.1787
     15 C4         12.5598    9.8494   21.5025 C.ar    1  lig        -0.1787
     16 C5         12.0339   10.5078   23.7729 C.ar    1  lig        -0.1394
     17 C6         11.1969    9.8664   21.2306 C.ar    1  lig         0.1292
     18 C7         12.5683   12.8230   26.7118 C.2     1  lig         0.9321
     19 C8         12.4889   10.8640   25.1754 C.3     1  lig        -0.0452
     20 C9         13.0033   12.2914   25.3653 C.3     1  lig        -0.0740
     21 N1         14.4602   12.2588   25.2429 N.4     1  lig        -0.8252
     22 O1         11.5061   13.4411   26.6996 O.co2   1  lig        -0.7573
     23 O2         13.2467   12.6804   27.7693 O.co2   1  lig        -0.7573
     24 O3         10.7459    9.5398   20.0855 O.3     1  lig        -0.4913
@<TRIPOS>BOND
     1     1    12    1
     2     2    13    1
     3     3    14    1
     4     4    15    1
     5     5    19    1
     6     6    19    1
     7     7    20    1
     8     8    21    1
     9     9    21    1
    10    10    21    1
    11    11    24    1
    12    12    14   ar
    13    12    16   ar
    14    13    15   ar
    15    13    16   ar
    16    14    17   ar
    17    15    17   ar
    18    16    19    1
    19    17    24    1
    20    18    20    1
    21    18    22    1
    22    18    23    1
    23    19    20    1
    24    20    21    1
@<TRIPOS>SUBSTRUCTURE
     1 lig         1 TEMP              0 ****  ****    0 ROOT


########## Name:		ligand
########## HA_RMSDs:		11.3109
########## HA_RMSDh:		11.2480
########## HA_RMSDm:		9.5563
########## Cluster Size:	1
##########    Grid Score:          -16.220459
##########      Grid_vdw:          -16.818769
##########       Grid_es:            0.598310
##########    Int_energy:            3.071379

@<TRIPOS>MOLECULE
ligand
 24 24 1 0 0
SMALL
No Charge or Current Charge


@<TRIPOS>ATOM
      1 H1         13.8694   17.3340   28.2237 H       1  lig         0.1340
      2 H2         17.9838   16.5648   29.0576 H       1  lig         0.1340
      3 H3         13.6115   18.2074   30.4864 H       1  lig         0.1475
      4 H4         17.7184   17.3992   31.3603 H       1  lig         0.1475
      5 H5         15.3597   16.8387   26.4626 H       1  lig         0.0877
      6 H6         17.0719   16.6576   26.6769 H       1  lig         0.0877
      7 H7         15.0466   14.4780   27.3949 H       1  lig         0.0966
      8 H8         17.1802   14.4062   28.5904 H       1  lig         0.4431
      9 H9         17.1475   13.1710   27.4831 H       1  lig         0.4431
     10 H10        18.0161   14.5535   27.1533 H       1  lig         0.4431
     11 H11        16.1579   18.0292   32.8216 H       1  lig         0.4214
     12 C1         14.7186   17.3368   28.9024 C.ar    1  lig        -0.0999
     13 C2         17.0114   16.9233   29.3869 C.ar    1  lig        -0.0999
     14 C3         14.5781   17.8310   30.1700 C.ar    1  lig        -0.1787
     15 C4         16.8710   17.3831   30.6823 C.ar    1  lig        -0.1787
     16 C5         15.9362   16.8742   28.5071 C.ar    1  lig        -0.1394
     17 C6         15.6130   17.8316   31.0672 C.ar    1  lig         0.1292
     18 C7         15.8915   14.4774   25.4628 C.2     1  lig         0.9321
     19 C8         16.1072   16.3462   27.0954 C.3     1  lig        -0.0452
     20 C9         15.9677   14.8325   26.9301 C.3     1  lig        -0.0740
     21 N1         17.1198   14.2065   27.5778 N.4     1  lig        -0.8252
     22 O1         16.4014   15.3033   24.7088 O.co2   1  lig        -0.7573
     23 O2         15.3240   13.4349   25.0269 O.co2   1  lig        -0.7573
     24 O3         15.4105   18.3231   32.2243 O.3     1  lig        -0.4913
@<TRIPOS>BOND
     1     1    12    1
     2     2    13    1
     3     3    14    1
     4     4    15    1
     5     5    19    1
     6     6    19    1
     7     7    20    1
     8     8    21    1
     9     9    21    1
    10    10    21    1
    11    11    24    1
    12    12    14   ar
    13    12    16   ar
    14    13    15   ar
    15    13    16   ar
    16    14    17   ar
    17    15    17   ar
    18    16    19    1
    19    17    24    1
    20    18    20    1
    21    18    22    1
    22    18    23    1
    23    19    20    1
    24    20    21    1
@<TRIPOS>SUBSTRUCTURE
     1 lig         1 TEMP              0 ****  ****    0 ROOT


########## Name:		ligand
########## HA_RMSDs:		11.9512
########## HA_RMSDh:		11.8287
########## HA_RMSDm:		9.7525
########## Cluster Size:	1
##########    Grid Score:          -16.213629
##########      Grid_vdw:          -15.731089
##########       Grid_es:           -0.482540
##########    Int_energy:            3.161529

@<TRIPOS>MOLECULE
ligand
 24 24 1 0 0
SMALL
No Charge or Current Charge


@<TRIPOS>ATOM
      1 H1         10.3038   11.2191   22.7243 H       1  lig         0.1340
      2 H2         12.5578   12.6546   26.0521 H       1  lig         0.1340
      3 H3         12.3932   10.6688   21.5927 H       1  lig         0.1475
      4 H4         14.6725   12.1474   24.8946 H       1  lig         0.1475
      5 H5         10.2379   13.0278   25.9685 H       1  lig         0.0877
      6 H6          9.3217   12.8678   24.5037 H       1  lig         0.0877
      7 H7          8.5284   11.4648   26.5044 H       1  lig         0.0966
      8 H8         10.7622   10.7173   27.1663 H       1  lig         0.4431
      9 H9          9.8406    9.3865   26.8022 H       1  lig         0.4431
     10 H10        10.9612    9.9416   25.7019 H       1  lig         0.4431
     11 H11        15.2174   10.4253   23.0688 H       1  lig         0.4214
     12 C1         11.2535   11.4333   23.2080 C.ar    1  lig        -0.0999
     13 C2         12.5301   12.2214   25.0550 C.ar    1  lig        -0.0999
     14 C3         12.4265   11.1207   22.5780 C.ar    1  lig        -0.1787
     15 C4         13.7216   11.9467   24.4114 C.ar    1  lig        -0.1787
     16 C5         11.3006   11.9918   24.4484 C.ar    1  lig        -0.1394
     17 C6         13.6462   11.3950   23.1379 C.ar    1  lig         0.1292
     18 C7          8.4868   10.4047   24.6819 C.2     1  lig         0.9321
     19 C8         10.0043   12.3200   25.1646 C.3     1  lig        -0.0452
     20 C9          9.2553   11.1290   25.7633 C.3     1  lig        -0.0740
     21 N1         10.2423   10.2577   26.3999 N.4     1  lig        -0.8252
     22 O1          8.8287    9.2375   24.5047 O.co2   1  lig        -0.7573
     23 O2          7.5845   10.9502   23.9840 O.co2   1  lig        -0.7573
     24 O3         14.6949   11.0600   22.4980 O.3     1  lig        -0.4913
@<TRIPOS>BOND
     1     1    12    1
     2     2    13    1
     3     3    14    1
     4     4    15    1
     5     5    19    1
     6     6    19    1
     7     7    20    1
     8     8    21    1
     9     9    21    1
    10    10    21    1
    11    11    24    1
    12    12    14   ar
    13    12    16   ar
    14    13    15   ar
    15    13    16   ar
    16    14    17   ar
    17    15    17   ar
    18    16    19    1
    19    17    24    1
    20    18    20    1
    21    18    22    1
    22    18    23    1
    23    19    20    1
    24    20    21    1
@<TRIPOS>SUBSTRUCTURE
     1 lig         1 TEMP              0 ****  ****    0 ROOT


########## Name:		ligand
########## HA_RMSDs:		10.6679
########## HA_RMSDh:		10.6048
########## HA_RMSDm:		9.3345
########## Cluster Size:	1
##########    Grid Score:          -16.204903
##########      Grid_vdw:          -12.952341
##########       Grid_es:           -3.252562
##########    Int_energy:            1.207481

@<TRIPOS>MOLECULE
ligand
 24 24 1 0 0
SMALL
No Charge or Current Charge


@<TRIPOS>ATOM
      1 H1         14.0623   11.0377   24.6915 H       1  lig         0.1340
      2 H2         14.7827    8.3018   21.4960 H       1  lig         0.1340
      3 H3         11.9772   11.6952   23.6104 H       1  lig         0.1475
      4 H4         12.7029    8.9972   20.3734 H       1  lig         0.1475
      5 H5         15.5990    8.8610   24.8310 H       1  lig         0.0877
      6 H6         16.2874    8.3482   23.3231 H       1  lig         0.0877
      7 H7         16.5375   11.2689   23.6326 H       1  lig         0.0966
      8 H8         17.7914    9.8396   22.0926 H       1  lig         0.4431
      9 H9         18.8584   10.5630   23.1372 H       1  lig         0.4431
     10 H10        18.4205    8.9734   23.3732 H       1  lig         0.4431
     11 H11        10.9794   11.7690   21.6651 H       1  lig         0.4214
     12 C1         13.7795   10.5877   23.7432 C.ar    1  lig        -0.0999
     13 C2         14.1572    9.0637   21.9551 C.ar    1  lig        -0.0999
     14 C3         12.6082   10.9506   23.1375 C.ar    1  lig        -0.1787
     15 C4         12.9961    9.4518   21.3144 C.ar    1  lig        -0.1787
     16 C5         14.5633    9.6459   23.1503 C.ar    1  lig        -0.1394
     17 C6         12.2235   10.4291   21.9308 C.ar    1  lig         0.1292
     18 C7         17.3541   10.4433   25.3929 C.2     1  lig         0.9321
     19 C8         15.8525    9.2200   23.8267 C.3     1  lig        -0.0452
     20 C9         16.9273   10.3006   23.9499 C.3     1  lig        -0.0740
     21 N1         18.0466    9.9141   23.0917 N.4     1  lig        -0.8252
     22 O1         18.0544    9.5249   25.8132 O.co2   1  lig        -0.7573
     23 O2         17.0011   11.4069   26.1317 O.co2   1  lig        -0.7573
     24 O3         11.1114   10.8036   21.4365 O.3     1  lig        -0.4913
@<TRIPOS>BOND
     1     1    12    1
     2     2    13    1
     3     3    14    1
     4     4    15    1
     5     5    19    1
     6     6    19    1
     7     7    20    1
     8     8    21    1
     9     9    21    1
    10    10    21    1
    11    11    24    1
    12    12    14   ar
    13    12    16   ar
    14    13    15   ar
    15    13    16   ar
    16    14    17   ar
    17    15    17   ar
    18    16    19    1
    19    17    24    1
    20    18    20    1
    21    18    22    1
    22    18    23    1
    23    19    20    1
    24    20    21    1
@<TRIPOS>SUBSTRUCTURE
     1 lig         1 TEMP              0 ****  ****    0 ROOT


########## Name:		ligand
########## HA_RMSDs:		14.2644
########## HA_RMSDh:		14.2490
########## HA_RMSDm:		12.5770
########## Cluster Size:	1
##########    Grid Score:          -16.204170
##########      Grid_vdw:          -15.180573
##########       Grid_es:           -1.023597
##########    Int_energy:            1.166057

@<TRIPOS>MOLECULE
ligand
 24 24 1 0 0
SMALL
No Charge or Current Charge


@<TRIPOS>ATOM
      1 H1         24.9909    7.2728   14.8830 H       1  lig         0.1340
      2 H2         21.8929    5.0536   12.9613 H       1  lig         0.1340
      3 H3         24.7441    9.0127   13.1917 H       1  lig         0.1475
      4 H4         21.6727    6.7837   11.2213 H       1  lig         0.1475
      5 H5         23.5050    5.4482   16.0535 H       1  lig         0.0877
      6 H6         22.7733    4.2609   15.0213 H       1  lig         0.0877
      7 H7         25.7751    4.8493   15.1400 H       1  lig         0.0966
      8 H8         24.9816    4.0776   12.9578 H       1  lig         0.4431
      9 H9         25.8208    2.8455   13.6863 H       1  lig         0.4431
     10 H10        24.1553    2.8190   13.6782 H       1  lig         0.4431
     11 H11        22.4864    8.7010   10.5590 H       1  lig         0.4214
     12 C1         24.2650    7.1504   14.0831 C.ar    1  lig        -0.0999
     13 C2         22.5306    5.9337   12.9997 C.ar    1  lig        -0.0999
     14 C3         24.1207    8.1270   13.1365 C.ar    1  lig        -0.1787
     15 C4         22.4042    6.8952   12.0154 C.ar    1  lig        -0.1787
     16 C5         23.4737    6.0450   14.0148 C.ar    1  lig        -0.1394
     17 C6         23.2372    8.0048   12.0969 C.ar    1  lig         0.1292
     18 C7         24.9727    3.2354   16.2348 C.2     1  lig         0.9321
     19 C8         23.6103    4.9676   15.0738 C.3     1  lig        -0.0452
     20 C9         24.9195    4.1779   15.0542 C.3     1  lig        -0.0740
     21 N1         24.9842    3.4560   13.7840 N.4     1  lig        -0.8252
     22 O1         25.5023    3.7035   17.2403 O.co2   1  lig        -0.7573
     23 O2         24.5415    2.0474   16.1977 O.co2   1  lig        -0.7573
     24 O3         23.1474    8.9631   11.2633 O.3     1  lig        -0.4913
@<TRIPOS>BOND
     1     1    12    1
     2     2    13    1
     3     3    14    1
     4     4    15    1
     5     5    19    1
     6     6    19    1
     7     7    20    1
     8     8    21    1
     9     9    21    1
    10    10    21    1
    11    11    24    1
    12    12    14   ar
    13    12    16   ar
    14    13    15   ar
    15    13    16   ar
    16    14    17   ar
    17    15    17   ar
    18    16    19    1
    19    17    24    1
    20    18    20    1
    21    18    22    1
    22    18    23    1
    23    19    20    1
    24    20    21    1
@<TRIPOS>SUBSTRUCTURE
     1 lig         1 TEMP              0 ****  ****    0 ROOT


########## Name:		ligand
########## HA_RMSDs:		10.3370
########## HA_RMSDh:		10.2149
########## HA_RMSDm:		8.5900
########## Cluster Size:	1
##########    Grid Score:          -16.198603
##########      Grid_vdw:          -17.045704
##########       Grid_es:            0.847102
##########    Int_energy:            1.806272

@<TRIPOS>MOLECULE
ligand
 24 24 1 0 0
SMALL
No Charge or Current Charge


@<TRIPOS>ATOM
      1 H1         12.0176   12.0761   23.6423 H       1  lig         0.1340
      2 H2         15.0063    9.0545   23.2515 H       1  lig         0.1340
      3 H3         10.8950   11.1691   21.6761 H       1  lig         0.1475
      4 H4         13.9049    8.1640   21.2358 H       1  lig         0.1475
      5 H5         13.7336   12.0740   25.1139 H       1  lig         0.0877
      6 H6         14.2020   10.4843   25.6279 H       1  lig         0.0877
      7 H7         16.3400   10.6976   24.2875 H       1  lig         0.0966
      8 H8         16.2017   11.3199   26.6498 H       1  lig         0.4431
      9 H9         17.2414   12.3618   25.8839 H       1  lig         0.4431
     10 H10        15.6904   12.8547   26.2388 H       1  lig         0.4431
     11 H11        10.7321    9.5399   20.3951 H       1  lig         0.4214
     12 C1         12.4447   11.2232   23.1210 C.ar    1  lig        -0.0999
     13 C2         14.0959    9.5255   22.8884 C.ar    1  lig        -0.0999
     14 C3         11.8144   10.7091   22.0214 C.ar    1  lig        -0.1787
     15 C4         13.4892    9.0228   21.7532 C.ar    1  lig        -0.1787
     16 C5         13.5934   10.6365   23.5559 C.ar    1  lig        -0.1394
     17 C6         12.3285    9.6519   21.3185 C.ar    1  lig         0.1292
     18 C7         15.8963   12.6192   23.5408 C.2     1  lig         0.9321
     19 C8         14.2867   11.1851   24.7885 C.3     1  lig        -0.0452
     20 C9         15.7581   11.5616   24.6118 C.3     1  lig        -0.0740
     21 N1         16.2543   12.0339   25.9038 N.4     1  lig        -0.8252
     22 O1         16.3520   12.2118   22.4744 O.co2   1  lig        -0.7573
     23 O2         15.6023   13.8357   23.7209 O.co2   1  lig        -0.7573
     24 O3         11.6764    9.2182   20.3145 O.3     1  lig        -0.4913
@<TRIPOS>BOND
     1     1    12    1
     2     2    13    1
     3     3    14    1
     4     4    15    1
     5     5    19    1
     6     6    19    1
     7     7    20    1
     8     8    21    1
     9     9    21    1
    10    10    21    1
    11    11    24    1
    12    12    14   ar
    13    12    16   ar
    14    13    15   ar
    15    13    16   ar
    16    14    17   ar
    17    15    17   ar
    18    16    19    1
    19    17    24    1
    20    18    20    1
    21    18    22    1
    22    18    23    1
    23    19    20    1
    24    20    21    1
@<TRIPOS>SUBSTRUCTURE
     1 lig         1 TEMP              0 ****  ****    0 ROOT


########## Name:		ligand
########## HA_RMSDs:		15.7504
########## HA_RMSDh:		15.7243
########## HA_RMSDm:		13.7805
########## Cluster Size:	1
##########    Grid Score:          -16.191694
##########      Grid_vdw:          -12.998817
##########       Grid_es:           -3.192877
##########    Int_energy:            3.406518

@<TRIPOS>MOLECULE
ligand
 24 24 1 0 0
SMALL
No Charge or Current Charge


@<TRIPOS>ATOM
      1 H1         22.8684    3.4594   11.6430 H       1  lig         0.1340
      2 H2         26.0846    6.1417   12.4656 H       1  lig         0.1340
      3 H3         21.2950    5.1952   12.3217 H       1  lig         0.1475
      4 H4         24.5033    7.8822   13.1999 H       1  lig         0.1475
      5 H5         24.9809    2.7925   11.1559 H       1  lig         0.0877
      6 H6         26.1898    3.9781   10.7769 H       1  lig         0.0877
      7 H7         26.7634    2.0295   12.4544 H       1  lig         0.0966
      8 H8         24.8406    2.4679   13.9027 H       1  lig         0.4431
      9 H9         26.2313    2.7273   14.7696 H       1  lig         0.4431
     10 H10        25.3734    4.0259   14.1763 H       1  lig         0.4431
     11 H11        21.0791    6.9937   13.4373 H       1  lig         0.4214
     12 C1         23.2397    4.4211   11.9878 C.ar    1  lig        -0.0999
     13 C2         25.0170    5.9357   12.4459 C.ar    1  lig        -0.0999
     14 C3         22.3595    5.3982   12.3638 C.ar    1  lig        -0.1787
     15 C4         24.1384    6.9160   12.8660 C.ar    1  lig        -0.1787
     16 C5         24.5745    4.6841   12.0335 C.ar    1  lig        -0.1394
     17 C6         22.7819    6.6156   12.8281 C.ar    1  lig         0.1292
     18 C7         27.7162    3.8768   12.8102 C.2     1  lig         0.9321
     19 C8         25.5573    3.6148   11.5959 C.3     1  lig        -0.0452
     20 C9         26.4571    3.0486   12.6950 C.3     1  lig        -0.0740
     21 N1         25.6924    3.0527   13.9415 N.4     1  lig        -0.8252
     22 O1         28.4811    3.7820   11.8528 O.co2   1  lig        -0.7573
     23 O2         27.9915    4.5896   13.8177 O.co2   1  lig        -0.7573
     24 O3         21.9029    7.4808   13.1444 O.3     1  lig        -0.4913
@<TRIPOS>BOND
     1     1    12    1
     2     2    13    1
     3     3    14    1
     4     4    15    1
     5     5    19    1
     6     6    19    1
     7     7    20    1
     8     8    21    1
     9     9    21    1
    10    10    21    1
    11    11    24    1
    12    12    14   ar
    13    12    16   ar
    14    13    15   ar
    15    13    16   ar
    16    14    17   ar
    17    15    17   ar
    18    16    19    1
    19    17    24    1
    20    18    20    1
    21    18    22    1
    22    18    23    1
    23    19    20    1
    24    20    21    1
@<TRIPOS>SUBSTRUCTURE
     1 lig         1 TEMP              0 ****  ****    0 ROOT


########## Name:		ligand
########## HA_RMSDs:		11.7034
########## HA_RMSDh:		11.7015
########## HA_RMSDm:		9.2491
########## Cluster Size:	1
##########    Grid Score:          -16.190760
##########      Grid_vdw:          -14.794046
##########       Grid_es:           -1.396714
##########    Int_energy:            3.173981

@<TRIPOS>MOLECULE
ligand
 24 24 1 0 0
SMALL
No Charge or Current Charge


@<TRIPOS>ATOM
      1 H1         17.5614   17.0405   30.2537 H       1  lig         0.1340
      2 H2         15.1092   16.8019   26.7686 H       1  lig         0.1340
      3 H3         15.7317   18.1534   31.4208 H       1  lig         0.1475
      4 H4         13.2749   17.9701   27.9259 H       1  lig         0.1475
      5 H5         17.6588   16.5965   26.7018 H       1  lig         0.0877
      6 H6         18.5520   16.3880   28.1746 H       1  lig         0.0877
      7 H7         18.4088   14.1884   27.3537 H       1  lig         0.0966
      8 H8         16.8238   14.7425   25.5738 H       1  lig         0.4431
      9 H9         16.3013   13.3694   26.3449 H       1  lig         0.4431
     10 H10        15.5776   14.8316   26.6805 H       1  lig         0.4431
     11 H11        12.6694   18.7412   29.8802 H       1  lig         0.4214
     12 C1         16.6304   17.2436   29.7305 C.ar    1  lig        -0.0999
     13 C2         15.2431   17.1149   27.8014 C.ar    1  lig        -0.0999
     14 C3         15.6008   17.8627   30.3842 C.ar    1  lig        -0.1787
     15 C4         14.2108   17.7754   28.4398 C.ar    1  lig        -0.1787
     16 C5         16.4578   16.8724   28.4324 C.ar    1  lig        -0.1394
     17 C6         14.4194   18.1612   29.7587 C.ar    1  lig         0.1292
     18 C7         16.9643   14.0593   28.8846 C.2     1  lig         0.9321
     19 C8         17.5858   16.1641   27.7065 C.3     1  lig        -0.0452
     20 C9         17.4445   14.6470   27.5774 C.3     1  lig        -0.0740
     21 N1         16.5062   14.3791   26.4881 N.4     1  lig        -0.8252
     22 O1         17.8598   13.7615   29.6719 O.co2   1  lig        -0.7573
     23 O2         15.7452   13.8535   29.1498 O.co2   1  lig        -0.7573
     24 O3         13.5008   18.7243   30.4372 O.3     1  lig        -0.4913
@<TRIPOS>BOND
     1     1    12    1
     2     2    13    1
     3     3    14    1
     4     4    15    1
     5     5    19    1
     6     6    19    1
     7     7    20    1
     8     8    21    1
     9     9    21    1
    10    10    21    1
    11    11    24    1
    12    12    14   ar
    13    12    16   ar
    14    13    15   ar
    15    13    16   ar
    16    14    17   ar
    17    15    17   ar
    18    16    19    1
    19    17    24    1
    20    18    20    1
    21    18    22    1
    22    18    23    1
    23    19    20    1
    24    20    21    1
@<TRIPOS>SUBSTRUCTURE
     1 lig         1 TEMP              0 ****  ****    0 ROOT


########## Name:		ligand
########## HA_RMSDs:		12.4444
########## HA_RMSDh:		12.4167
########## HA_RMSDm:		10.1404
########## Cluster Size:	1
##########    Grid Score:          -16.150568
##########      Grid_vdw:          -15.777203
##########       Grid_es:           -0.373365
##########    Int_energy:            3.333692

@<TRIPOS>MOLECULE
ligand
 24 24 1 0 0
SMALL
No Charge or Current Charge


@<TRIPOS>ATOM
      1 H1         13.6726   16.0032   31.1861 H       1  lig         0.1340
      2 H2         16.7961   16.7066   28.3639 H       1  lig         0.1340
      3 H3         13.0210   18.3457   30.9943 H       1  lig         0.1475
      4 H4         16.1748   19.0851   28.2032 H       1  lig         0.1475
      5 H5         16.7793   14.7008   29.8235 H       1  lig         0.0877
      6 H6         15.4665   14.3583   30.9050 H       1  lig         0.0877
      7 H7         15.3201   12.7826   29.0805 H       1  lig         0.0966
      8 H8         16.6403   14.0986   27.4956 H       1  lig         0.4431
      9 H9         15.2205   13.6500   26.7637 H       1  lig         0.4431
     10 H10        15.3975   15.2021   27.3420 H       1  lig         0.4431
     11 H11        13.3230   20.1443   30.1270 H       1  lig         0.4214
     12 C1         14.2328   16.6687   30.5342 C.ar    1  lig        -0.0999
     13 C2         15.9630   17.0819   28.9536 C.ar    1  lig        -0.0999
     14 C3         13.8662   17.9815   30.4206 C.ar    1  lig        -0.1787
     15 C4         15.6265   18.4189   28.8616 C.ar    1  lig        -0.1787
     16 C5         15.2884   16.2143   29.8049 C.ar    1  lig        -0.1394
     17 C6         14.5573   18.8620   29.6312 C.ar    1  lig         0.1292
     18 C7         13.5640   13.9351   28.8946 C.2     1  lig         0.9321
     19 C8         15.6875   14.7543   29.9065 C.3     1  lig        -0.0452
     20 C9         15.0710   13.8222   28.8629 C.3     1  lig        -0.0740
     21 N1         15.6129   14.1964   27.5572 N.4     1  lig        -0.8252
     22 O1         13.0049   13.1237   29.6291 O.co2   1  lig        -0.7573
     23 O2         12.9132   14.7696   28.2026 O.co2   1  lig        -0.7573
     24 O3         14.1464   20.0653   29.5636 O.3     1  lig        -0.4913
@<TRIPOS>BOND
     1     1    12    1
     2     2    13    1
     3     3    14    1
     4     4    15    1
     5     5    19    1
     6     6    19    1
     7     7    20    1
     8     8    21    1
     9     9    21    1
    10    10    21    1
    11    11    24    1
    12    12    14   ar
    13    12    16   ar
    14    13    15   ar
    15    13    16   ar
    16    14    17   ar
    17    15    17   ar
    18    16    19    1
    19    17    24    1
    20    18    20    1
    21    18    22    1
    22    18    23    1
    23    19    20    1
    24    20    21    1
@<TRIPOS>SUBSTRUCTURE
     1 lig         1 TEMP              0 ****  ****    0 ROOT


########## Name:		ligand
########## HA_RMSDs:		15.8832
########## HA_RMSDh:		15.8029
########## HA_RMSDm:		13.7993
########## Cluster Size:	1
##########    Grid Score:          -16.132492
##########      Grid_vdw:          -14.528603
##########       Grid_es:           -1.603889
##########    Int_energy:            4.691983

@<TRIPOS>MOLECULE
ligand
 24 24 1 0 0
SMALL
No Charge or Current Charge


@<TRIPOS>ATOM
      1 H1          7.8303    8.3589   20.9203 H       1  lig         0.1340
      2 H2          5.8741    7.6276   24.6424 H       1  lig         0.1340
      3 H3          6.8358    6.3144   20.0373 H       1  lig         0.1475
      4 H4          4.9065    5.5355   23.7729 H       1  lig         0.1475
      5 H5          8.2895    9.7352   22.6772 H       1  lig         0.0877
      6 H6          6.7873   10.1912   23.4162 H       1  lig         0.0877
      7 H7          7.4824    8.8492   25.4924 H       1  lig         0.0966
      8 H8          7.7496   11.2718   25.2778 H       1  lig         0.4431
      9 H9          9.0492   10.6637   26.1109 H       1  lig         0.4431
     10 H10         9.2131   11.0644   24.5025 H       1  lig         0.4431
     11 H11         5.8177    4.5859   20.4326 H       1  lig         0.4214
     12 C1          7.1971    7.7466   21.5574 C.ar    1  lig        -0.0999
     13 C2          6.0910    7.3229   23.6213 C.ar    1  lig        -0.0999
     14 C3          6.6337    6.6025   21.0631 C.ar    1  lig        -0.1787
     15 C4          5.5491    6.1445   23.1450 C.ar    1  lig        -0.1787
     16 C5          6.9328    8.1087   22.8426 C.ar    1  lig        -0.1394
     17 C6          5.8500    5.7872   21.8359 C.ar    1  lig         0.1292
     18 C7          9.3800    8.3616   24.7122 C.2     1  lig         0.9321
     19 C8          7.5342    9.3884   23.3920 C.3     1  lig        -0.0452
     20 C9          8.1809    9.2798   24.7733 C.3     1  lig        -0.0740
     21 N1          8.5551   10.6288   25.1962 N.4     1  lig        -0.8252
     22 O1          9.7760    8.1111   23.5760 O.co2   1  lig        -0.7573
     23 O2          9.9238    7.8569   25.7361 O.co2   1  lig        -0.7573
     24 O3          5.3471    4.7469   21.3011 O.3     1  lig        -0.4913
@<TRIPOS>BOND
     1     1    12    1
     2     2    13    1
     3     3    14    1
     4     4    15    1
     5     5    19    1
     6     6    19    1
     7     7    20    1
     8     8    21    1
     9     9    21    1
    10    10    21    1
    11    11    24    1
    12    12    14   ar
    13    12    16   ar
    14    13    15   ar
    15    13    16   ar
    16    14    17   ar
    17    15    17   ar
    18    16    19    1
    19    17    24    1
    20    18    20    1
    21    18    22    1
    22    18    23    1
    23    19    20    1
    24    20    21    1
@<TRIPOS>SUBSTRUCTURE
     1 lig         1 TEMP              0 ****  ****    0 ROOT


########## Name:		ligand
########## HA_RMSDs:		12.0921
########## HA_RMSDh:		12.0061
########## HA_RMSDm:		9.8627
########## Cluster Size:	1
##########    Grid Score:          -16.084808
##########      Grid_vdw:          -15.690022
##########       Grid_es:           -0.394787
##########    Int_energy:            5.157390

@<TRIPOS>MOLECULE
ligand
 24 24 1 0 0
SMALL
No Charge or Current Charge


@<TRIPOS>ATOM
      1 H1         12.3162   10.6119   21.3344 H       1  lig         0.1340
      2 H2         11.6995    7.0088   23.5374 H       1  lig         0.1340
      3 H3         10.2055   10.2221   20.1759 H       1  lig         0.1475
      4 H4          9.5915    6.5831   22.3357 H       1  lig         0.1475
      5 H5         13.5256   10.1452   23.4273 H       1  lig         0.0877
      6 H6         13.4339    8.6049   24.2209 H       1  lig         0.0877
      7 H7         15.5155    9.3605   22.6202 H       1  lig         0.0966
      8 H8         14.0755    9.3480   20.6420 H       1  lig         0.4431
      9 H9         15.1830    8.1202   20.5033 H       1  lig         0.4431
     10 H10        13.6182    7.7740   20.9571 H       1  lig         0.4431
     11 H11         8.0741    7.7029   21.0803 H       1  lig         0.4214
     12 C1         11.7324    9.7227   21.5585 C.ar    1  lig        -0.0999
     13 C2         11.3646    7.7142   22.7806 C.ar    1  lig        -0.0999
     14 C3         10.5458    9.5044   20.9143 C.ar    1  lig        -0.1787
     15 C4         10.1843    7.4632   22.1073 C.ar    1  lig        -0.1787
     16 C5         12.1505    8.8237   22.4912 C.ar    1  lig        -0.1394
     17 C6          9.7895    8.3862   21.1461 C.ar    1  lig         0.1292
     18 C7         15.2284    7.3268   23.0983 C.2     1  lig         0.9321
     19 C8         13.4536    9.0696   23.2276 C.3     1  lig        -0.0452
     20 C9         14.7225    8.6205   22.5023 C.3     1  lig        -0.0740
     21 N1         14.3948    8.4701   21.0851 N.4     1  lig        -0.8252
     22 O1         14.3491    6.5200   23.3924 O.co2   1  lig        -0.7573
     23 O2         16.4517    7.0905   23.3138 O.co2   1  lig        -0.7573
     24 O3          8.6881    8.2601   20.5197 O.3     1  lig        -0.4913
@<TRIPOS>BOND
     1     1    12    1
     2     2    13    1
     3     3    14    1
     4     4    15    1
     5     5    19    1
     6     6    19    1
     7     7    20    1
     8     8    21    1
     9     9    21    1
    10    10    21    1
    11    11    24    1
    12    12    14   ar
    13    12    16   ar
    14    13    15   ar
    15    13    16   ar
    16    14    17   ar
    17    15    17   ar
    18    16    19    1
    19    17    24    1
    20    18    20    1
    21    18    22    1
    22    18    23    1
    23    19    20    1
    24    20    21    1
@<TRIPOS>SUBSTRUCTURE
     1 lig         1 TEMP              0 ****  ****    0 ROOT


########## Name:		ligand
########## HA_RMSDs:		13.3424
########## HA_RMSDh:		13.2975
########## HA_RMSDm:		8.7375
########## Cluster Size:	1
##########    Grid Score:          -16.070211
##########      Grid_vdw:          -14.591617
##########       Grid_es:           -1.478594
##########    Int_energy:            1.658623

@<TRIPOS>MOLECULE
ligand
 24 24 1 0 0
SMALL
No Charge or Current Charge


@<TRIPOS>ATOM
      1 H1         17.1510   18.3779   29.7812 H       1  lig         0.1340
      2 H2         14.5150   15.1334   28.9209 H       1  lig         0.1340
      3 H3         17.3045   18.8395   27.3912 H       1  lig         0.1475
      4 H4         14.7050   15.5628   26.5025 H       1  lig         0.1475
      5 H5         16.3291   15.5414   31.2021 H       1  lig         0.0877
      6 H6         16.1988   17.2320   31.5698 H       1  lig         0.0877
      7 H7         13.8615   15.3303   31.0470 H       1  lig         0.0966
      8 H8         13.4532   17.5792   30.1738 H       1  lig         0.4431
      9 H9         12.5470   17.3678   31.5475 H       1  lig         0.4431
     10 H10        13.9555   18.2544   31.6152 H       1  lig         0.4431
     11 H11        17.1230   17.4233   25.3061 H       1  lig         0.4214
     12 C1         16.6154   17.7501   29.0736 C.ar    1  lig        -0.0999
     13 C2         15.1417   15.9505   28.5713 C.ar    1  lig        -0.0999
     14 C3         16.6954   18.0100   27.7332 C.ar    1  lig        -0.1787
     15 C4         15.2471   16.1791   27.2127 C.ar    1  lig        -0.1787
     16 C5         15.8421   16.7135   29.4985 C.ar    1  lig        -0.1394
     17 C6         16.0583   17.2311   26.8039 C.ar    1  lig         0.1292
     18 C7         14.3487   15.9524   33.0021 C.2     1  lig         0.9321
     19 C8         15.7286   16.4324   30.9847 C.3     1  lig        -0.0452
     20 C9         14.3113   16.2083   31.5128 C.3     1  lig        -0.0740
     21 N1         13.5231   17.3968   31.1891 N.4     1  lig        -0.8252
     22 O1         14.4636   14.7696   33.3159 O.co2   1  lig        -0.7573
     23 O2         14.2391   16.8664   33.8690 O.co2   1  lig        -0.7573
     24 O3         16.1666   17.5450   25.5746 O.3     1  lig        -0.4913
@<TRIPOS>BOND
     1     1    12    1
     2     2    13    1
     3     3    14    1
     4     4    15    1
     5     5    19    1
     6     6    19    1
     7     7    20    1
     8     8    21    1
     9     9    21    1
    10    10    21    1
    11    11    24    1
    12    12    14   ar
    13    12    16   ar
    14    13    15   ar
    15    13    16   ar
    16    14    17   ar
    17    15    17   ar
    18    16    19    1
    19    17    24    1
    20    18    20    1
    21    18    22    1
    22    18    23    1
    23    19    20    1
    24    20    21    1
@<TRIPOS>SUBSTRUCTURE
     1 lig         1 TEMP              0 ****  ****    0 ROOT


########## Name:		ligand
########## HA_RMSDs:		13.0886
########## HA_RMSDh:		13.0543
########## HA_RMSDm:		10.2537
########## Cluster Size:	1
##########    Grid Score:          -16.015514
##########      Grid_vdw:          -16.463440
##########       Grid_es:            0.447925
##########    Int_energy:            2.003500

@<TRIPOS>MOLECULE
ligand
 24 24 1 0 0
SMALL
No Charge or Current Charge


@<TRIPOS>ATOM
      1 H1         16.4927   14.7759   29.6759 H       1  lig         0.1340
      2 H2         13.4171   17.6497   30.3814 H       1  lig         0.1340
      3 H3         17.8001   16.5037   28.5558 H       1  lig         0.1475
      4 H4         14.7105   19.3870   29.2077 H       1  lig         0.1475
      5 H5         14.6072   14.7412   31.6917 H       1  lig         0.0877
      6 H6         13.1113   15.4474   31.1683 H       1  lig         0.0877
      7 H7         14.5836   13.0784   30.0145 H       1  lig         0.0966
      8 H8         14.3248   14.6517   28.1586 H       1  lig         0.4431
      9 H9         13.2431   13.4095   27.9594 H       1  lig         0.4431
     10 H10        12.7167   14.8775   28.5446 H       1  lig         0.4431
     11 H11        17.8854   18.3973   27.8342 H       1  lig         0.4214
     12 C1         16.0882   15.7798   29.5746 C.ar    1  lig        -0.0999
     13 C2         14.3896   17.4004   29.9635 C.ar    1  lig        -0.0999
     14 C3         16.8215   16.7520   28.9518 C.ar    1  lig        -0.1787
     15 C4         15.1045   18.3800   29.3012 C.ar    1  lig        -0.1787
     16 C5         14.8645   16.0989   30.0781 C.ar    1  lig        -0.1394
     17 C6         16.3423   18.0235   28.7792 C.ar    1  lig         0.1292
     18 C7         12.5465   13.0641   30.5596 C.2     1  lig         0.9321
     19 C8         14.0542   15.0332   30.7913 C.3     1  lig        -0.0452
     20 C9         13.7458   13.7763   29.9771 C.3     1  lig        -0.0740
     21 N1         13.5091   14.1893   28.5943 N.4     1  lig        -0.8252
     22 O1         12.7814   12.4110   31.5739 O.co2   1  lig        -0.7573
     23 O2         11.3945   13.1002   30.0396 O.co2   1  lig        -0.7573
     24 O3         17.0896   18.8789   28.2037 O.3     1  lig        -0.4913
@<TRIPOS>BOND
     1     1    12    1
     2     2    13    1
     3     3    14    1
     4     4    15    1
     5     5    19    1
     6     6    19    1
     7     7    20    1
     8     8    21    1
     9     9    21    1
    10    10    21    1
    11    11    24    1
    12    12    14   ar
    13    12    16   ar
    14    13    15   ar
    15    13    16   ar
    16    14    17   ar
    17    15    17   ar
    18    16    19    1
    19    17    24    1
    20    18    20    1
    21    18    22    1
    22    18    23    1
    23    19    20    1
    24    20    21    1
@<TRIPOS>SUBSTRUCTURE
     1 lig         1 TEMP              0 ****  ****    0 ROOT


########## Name:		ligand
########## HA_RMSDs:		10.3409
########## HA_RMSDh:		10.2573
########## HA_RMSDm:		8.8255
########## Cluster Size:	1
##########    Grid Score:          -15.996693
##########      Grid_vdw:          -15.184701
##########       Grid_es:           -0.811992
##########    Int_energy:            2.087093

@<TRIPOS>MOLECULE
ligand
 24 24 1 0 0
SMALL
No Charge or Current Charge


@<TRIPOS>ATOM
      1 H1         14.5992   15.3643   26.9408 H       1  lig         0.1340
      2 H2         18.2532   16.2572   28.9573 H       1  lig         0.1340
      3 H3         13.6923   17.4906   27.7188 H       1  lig         0.1475
      4 H4         17.3263   18.3832   29.7880 H       1  lig         0.1475
      5 H5         17.7389   13.9828   28.1907 H       1  lig         0.0877
      6 H6         16.2692   13.5871   27.3576 H       1  lig         0.0877
      7 H7         18.5287   15.2191   26.0932 H       1  lig         0.0966
      8 H8         16.2930   15.5563   25.1578 H       1  lig         0.4431
      9 H9         17.1955   14.6767   24.0786 H       1  lig         0.4431
     10 H10        16.0707   13.9066   25.0358 H       1  lig         0.4431
     11 H11        15.5993   19.8530   29.1550 H       1  lig         0.4214
     12 C1         15.2046   16.0130   27.5687 C.ar    1  lig        -0.0999
     13 C2         17.2352   16.5348   28.6943 C.ar    1  lig        -0.0999
     14 C3         14.7005   17.2084   28.0019 C.ar    1  lig        -0.1787
     15 C4         16.7221   17.7261   29.1706 C.ar    1  lig        -0.1787
     16 C5         16.4738   15.6678   27.9190 C.ar    1  lig        -0.1394
     17 C6         15.4172   18.0462   28.8148 C.ar    1  lig         0.1292
     18 C7         18.5401   13.1242   25.8526 C.2     1  lig         0.9321
     19 C8         17.0496   14.3548   27.4236 C.3     1  lig        -0.0452
     20 C9         17.7907   14.4156   26.0876 C.3     1  lig        -0.0740
     21 N1         16.8000   14.6629   25.0406 N.4     1  lig        -0.8252
     22 O1         19.4410   12.9009   26.6583 O.co2   1  lig        -0.7573
     23 O2         18.2945   12.3413   24.8905 O.co2   1  lig        -0.7573
     24 O3         14.8871   19.1499   29.1643 O.3     1  lig        -0.4913
@<TRIPOS>BOND
     1     1    12    1
     2     2    13    1
     3     3    14    1
     4     4    15    1
     5     5    19    1
     6     6    19    1
     7     7    20    1
     8     8    21    1
     9     9    21    1
    10    10    21    1
    11    11    24    1
    12    12    14   ar
    13    12    16   ar
    14    13    15   ar
    15    13    16   ar
    16    14    17   ar
    17    15    17   ar
    18    16    19    1
    19    17    24    1
    20    18    20    1
    21    18    22    1
    22    18    23    1
    23    19    20    1
    24    20    21    1
@<TRIPOS>SUBSTRUCTURE
     1 lig         1 TEMP              0 ****  ****    0 ROOT


########## Name:		ligand
########## HA_RMSDs:		14.1562
########## HA_RMSDh:		14.1004
########## HA_RMSDm:		12.0221
########## Cluster Size:	1
##########    Grid Score:          -15.889298
##########      Grid_vdw:          -16.178392
##########       Grid_es:            0.289094
##########    Int_energy:            2.298751

@<TRIPOS>MOLECULE
ligand
 24 24 1 0 0
SMALL
No Charge or Current Charge


@<TRIPOS>ATOM
      1 H1         21.6413    5.0604   12.7852 H       1  lig         0.1340
      2 H2         25.7110    6.0861   13.5603 H       1  lig         0.1340
      3 H3         21.3560    7.2000   11.6497 H       1  lig         0.1475
      4 H4         25.4162    8.2698   12.4586 H       1  lig         0.1475
      5 H5         22.8810    3.7229   14.2031 H       1  lig         0.0877
      6 H6         24.2981    3.3728   13.2651 H       1  lig         0.0877
      7 H7         25.6995    4.5816   15.0308 H       1  lig         0.0966
      8 H8         25.3786    2.1564   14.9856 H       1  lig         0.4431
      9 H9         25.4195    2.6595   16.5661 H       1  lig         0.4431
     10 H10        23.9582    2.3055   15.8493 H       1  lig         0.4431
     11 H11        22.3587    8.8074   10.7455 H       1  lig         0.4214
     12 C1         22.4741    5.7565   12.7263 C.ar    1  lig        -0.0999
     13 C2         24.7420    6.3460   13.1408 C.ar    1  lig        -0.0999
     14 C3         22.3185    6.9547   12.0854 C.ar    1  lig        -0.1787
     15 C4         24.5848    7.5758   12.5308 C.ar    1  lig        -0.1787
     16 C5         23.6866    5.4495   13.2631 C.ar    1  lig        -0.1394
     17 C6         23.3317    7.8731   12.0081 C.ar    1  lig         0.1292
     18 C7         24.0504    4.9855   16.2815 C.2     1  lig         0.9321
     19 C8         23.8752    4.1129   13.9551 C.3     1  lig        -0.0452
     20 C9         24.7230    4.1364   15.2274 C.3     1  lig        -0.0740
     21 N1         24.8920    2.7543   15.6745 N.4     1  lig        -0.8252
     22 O1         23.1109    4.4397   16.8561 O.co2   1  lig        -0.7573
     23 O2         24.3928    6.1747   16.5411 O.co2   1  lig        -0.7573
     24 O3         23.1166    8.9603   11.3810 O.3     1  lig        -0.4913
@<TRIPOS>BOND
     1     1    12    1
     2     2    13    1
     3     3    14    1
     4     4    15    1
     5     5    19    1
     6     6    19    1
     7     7    20    1
     8     8    21    1
     9     9    21    1
    10    10    21    1
    11    11    24    1
    12    12    14   ar
    13    12    16   ar
    14    13    15   ar
    15    13    16   ar
    16    14    17   ar
    17    15    17   ar
    18    16    19    1
    19    17    24    1
    20    18    20    1
    21    18    22    1
    22    18    23    1
    23    19    20    1
    24    20    21    1
@<TRIPOS>SUBSTRUCTURE
     1 lig         1 TEMP              0 ****  ****    0 ROOT


########## Name:		ligand
########## HA_RMSDs:		13.7147
########## HA_RMSDh:		13.6656
########## HA_RMSDm:		11.5740
########## Cluster Size:	1
##########    Grid Score:          -15.881486
##########      Grid_vdw:          -14.964481
##########       Grid_es:           -0.917005
##########    Int_energy:            4.417713

@<TRIPOS>MOLECULE
ligand
 24 24 1 0 0
SMALL
No Charge or Current Charge


@<TRIPOS>ATOM
      1 H1         12.1968   11.6724   26.4674 H       1  lig         0.1340
      2 H2          7.9681   11.1269   26.6558 H       1  lig         0.1340
      3 H3         12.0745   11.4994   24.0376 H       1  lig         0.1475
      4 H4          7.8439   10.9013   24.2057 H       1  lig         0.1475
      5 H5          9.2161   11.1350   28.6322 H       1  lig         0.0877
      6 H6         10.9266   10.8436   28.6372 H       1  lig         0.0877
      7 H7          9.5946   13.2167   29.4403 H       1  lig         0.0966
      8 H8          9.5677   13.8538   27.0781 H       1  lig         0.4431
      9 H9         10.6510   14.8220   27.8793 H       1  lig         0.4431
     10 H10        11.2046   13.5518   26.9548 H       1  lig         0.4431
     11 H11        10.2886   11.9949   22.3532 H       1  lig         0.4214
     12 C1         11.2384   11.4972   25.9852 C.ar    1  lig        -0.0999
     13 C2          8.8790   11.1988   26.0661 C.ar    1  lig        -0.0999
     14 C3         11.1662   11.4052   24.6225 C.ar    1  lig        -0.1787
     15 C4          8.7999   11.0643   24.6932 C.ar    1  lig        -0.1787
     16 C5         10.0941   11.3878   26.7142 C.ar    1  lig        -0.1394
     17 C6          9.9851   11.1605   23.9735 C.ar    1  lig         0.1292
     18 C7         11.6841   12.9601   29.5620 C.2     1  lig         0.9321
     19 C8         10.1613   11.5122   28.2245 C.3     1  lig        -0.0452
     20 C9         10.3999   12.9222   28.7658 C.3     1  lig        -0.0740
     21 N1         10.4456   13.8348   27.6240 N.4     1  lig        -0.8252
     22 O1         12.6942   12.6840   28.9184 O.co2   1  lig        -0.7573
     23 O2         11.7298   13.2208   30.7984 O.co2   1  lig        -0.7573
     24 O3          9.9939   11.1041   22.7015 O.3     1  lig        -0.4913
@<TRIPOS>BOND
     1     1    12    1
     2     2    13    1
     3     3    14    1
     4     4    15    1
     5     5    19    1
     6     6    19    1
     7     7    20    1
     8     8    21    1
     9     9    21    1
    10    10    21    1
    11    11    24    1
    12    12    14   ar
    13    12    16   ar
    14    13    15   ar
    15    13    16   ar
    16    14    17   ar
    17    15    17   ar
    18    16    19    1
    19    17    24    1
    20    18    20    1
    21    18    22    1
    22    18    23    1
    23    19    20    1
    24    20    21    1
@<TRIPOS>SUBSTRUCTURE
     1 lig         1 TEMP              0 ****  ****    0 ROOT


########## Name:		ligand
########## HA_RMSDs:		15.3603
########## HA_RMSDh:		15.3163
########## HA_RMSDm:		13.2320
########## Cluster Size:	1
##########    Grid Score:          -15.880565
##########      Grid_vdw:          -13.359930
##########       Grid_es:           -2.520634
##########    Int_energy:            4.335627

@<TRIPOS>MOLECULE
ligand
 24 24 1 0 0
SMALL
No Charge or Current Charge


@<TRIPOS>ATOM
      1 H1         22.0096    4.7026   13.5069 H       1  lig         0.1340
      2 H2         26.1869    5.3262   14.1210 H       1  lig         0.1340
      3 H3         21.8148    7.0095   12.7393 H       1  lig         0.1475
      4 H4         25.9881    7.6718   13.3942 H       1  lig         0.1475
      5 H5         25.2934    3.2552   14.5684 H       1  lig         0.0877
      6 H6         23.7210    3.2875   15.3013 H       1  lig         0.0877
      7 H7         23.8416    2.7372   12.3305 H       1  lig         0.0966
      8 H8         21.7340    2.9137   13.5607 H       1  lig         0.4431
      9 H9         21.9353    1.3414   13.0706 H       1  lig         0.4431
     10 H10        22.2484    1.7603   14.6520 H       1  lig         0.4431
     11 H11        22.7805    8.7172   12.1820 H       1  lig         0.4214
     12 C1         22.8872    5.3439   13.4931 C.ar    1  lig        -0.0999
     13 C2         25.2153    5.7118   13.8210 C.ar    1  lig        -0.0999
     14 C3         22.7819    6.6362   13.0580 C.ar    1  lig        -0.1787
     15 C4         25.1128    7.0305   13.4213 C.ar    1  lig        -0.1787
     16 C5         24.1051    4.8775   13.8832 C.ar    1  lig        -0.1394
     17 C6         23.8548    7.4877   13.0468 C.ar    1  lig         0.1292
     18 C7         24.6123    1.1376   13.4681 C.2     1  lig         0.9321
     19 C8         24.2359    3.4385   14.3448 C.3     1  lig        -0.0452
     20 C9         23.7534    2.3764   13.3563 C.3     1  lig        -0.0740
     21 N1         22.3517    2.0906   13.6600 N.4     1  lig        -0.8252
     22 O1         25.0829    0.9398   14.5862 O.co2   1  lig        -0.7573
     23 O2         24.8632    0.3735   12.4925 O.co2   1  lig        -0.7573
     24 O3         23.6828    8.6723   12.6126 O.3     1  lig        -0.4913
@<TRIPOS>BOND
     1     1    12    1
     2     2    13    1
     3     3    14    1
     4     4    15    1
     5     5    19    1
     6     6    19    1
     7     7    20    1
     8     8    21    1
     9     9    21    1
    10    10    21    1
    11    11    24    1
    12    12    14   ar
    13    12    16   ar
    14    13    15   ar
    15    13    16   ar
    16    14    17   ar
    17    15    17   ar
    18    16    19    1
    19    17    24    1
    20    18    20    1
    21    18    22    1
    22    18    23    1
    23    19    20    1
    24    20    21    1
@<TRIPOS>SUBSTRUCTURE
     1 lig         1 TEMP              0 ****  ****    0 ROOT


########## Name:		ligand
########## HA_RMSDs:		16.0005
########## HA_RMSDh:		15.9470
########## HA_RMSDm:		13.8733
########## Cluster Size:	1
##########    Grid Score:          -15.871021
##########      Grid_vdw:          -13.971737
##########       Grid_es:           -1.899285
##########    Int_energy:            1.751846

@<TRIPOS>MOLECULE
ligand
 24 24 1 0 0
SMALL
No Charge or Current Charge


@<TRIPOS>ATOM
      1 H1          9.8593    6.2913   22.5842 H       1  lig         0.1340
      2 H2          6.0374    7.7451   21.3616 H       1  lig         0.1340
      3 H3          9.2480    4.0842   21.7450 H       1  lig         0.1475
      4 H4          5.3945    5.5070   20.5574 H       1  lig         0.1475
      5 H5          9.4418    8.5321   22.7258 H       1  lig         0.0877
      6 H6          8.2039    9.2853   21.7715 H       1  lig         0.0877
      7 H7          6.6161    8.6553   23.8341 H       1  lig         0.0966
      8 H8          7.2249   10.8955   23.0611 H       1  lig         0.4431
      9 H9          7.2905   10.8672   24.7187 H       1  lig         0.4431
     10 H10         8.6999   10.7861   23.8346 H       1  lig         0.4431
     11 H11         6.5786    3.5589   19.8253 H       1  lig         0.4214
     12 C1          8.8763    6.1316   22.1484 C.ar    1  lig        -0.0999
     13 C2          6.7426    6.9223   21.4521 C.ar    1  lig        -0.0999
     14 C3          8.5329    4.8963   21.6721 C.ar    1  lig        -0.1787
     15 C4          6.3703    5.6693   21.0042 C.ar    1  lig        -0.1787
     16 C5          7.9787    7.1498   22.0461 C.ar    1  lig        -0.1394
     17 C6          7.2974    4.6425   21.1380 C.ar    1  lig         0.1292
     18 C7          8.3266    8.3790   25.0362 C.2     1  lig         0.9321
     19 C8          8.3597    8.5288   22.5501 C.3     1  lig        -0.0452
     20 C9          7.6550    8.9883   23.8269 C.3     1  lig        -0.0740
     21 N1          7.7049   10.4495   23.8609 N.4     1  lig        -0.8252
     22 O1          8.0345    7.2038   25.2465 O.co2   1  lig        -0.7573
     23 O2          9.1034    9.0216   25.7994 O.co2   1  lig        -0.7573
     24 O3          7.0563    3.4713   20.7005 O.3     1  lig        -0.4913
@<TRIPOS>BOND
     1     1    12    1
     2     2    13    1
     3     3    14    1
     4     4    15    1
     5     5    19    1
     6     6    19    1
     7     7    20    1
     8     8    21    1
     9     9    21    1
    10    10    21    1
    11    11    24    1
    12    12    14   ar
    13    12    16   ar
    14    13    15   ar
    15    13    16   ar
    16    14    17   ar
    17    15    17   ar
    18    16    19    1
    19    17    24    1
    20    18    20    1
    21    18    22    1
    22    18    23    1
    23    19    20    1
    24    20    21    1
@<TRIPOS>SUBSTRUCTURE
     1 lig         1 TEMP              0 ****  ****    0 ROOT


########## Name:		ligand
########## HA_RMSDs:		10.5927
########## HA_RMSDh:		10.5620
########## HA_RMSDm:		8.8518
########## Cluster Size:	1
##########    Grid Score:          -15.859398
##########      Grid_vdw:          -16.971258
##########       Grid_es:            1.111860
##########    Int_energy:            1.428450

@<TRIPOS>MOLECULE
ligand
 24 24 1 0 0
SMALL
No Charge or Current Charge


@<TRIPOS>ATOM
      1 H1         17.0265   17.8518   27.0561 H       1  lig         0.1340
      2 H2         14.2005   14.8566   28.1776 H       1  lig         0.1340
      3 H3         16.1126   19.3100   28.7845 H       1  lig         0.1475
      4 H4         13.2397   16.3427   29.8915 H       1  lig         0.1475
      5 H5         15.3919   14.8907   25.9020 H       1  lig         0.0877
      6 H6         16.7599   15.9309   25.6631 H       1  lig         0.0877
      7 H7         16.6299   13.5876   27.6257 H       1  lig         0.0966
      8 H8         17.9792   15.4531   28.4539 H       1  lig         0.4431
      9 H9         18.9946   14.2275   27.9850 H       1  lig         0.4431
     10 H10        18.7827   15.5495   26.9941 H       1  lig         0.4431
     11 H11        13.2861   18.4730   30.5829 H       1  lig         0.4214
     12 C1         16.1933   17.5115   27.6657 C.ar    1  lig        -0.0999
     13 C2         14.6139   15.8533   28.3126 C.ar    1  lig        -0.0999
     14 C3         15.6824   18.3251   28.6393 C.ar    1  lig        -0.1787
     15 C4         14.0638   16.6818   29.2720 C.ar    1  lig        -0.1787
     16 C5         15.6561   16.2727   27.4938 C.ar    1  lig        -0.1394
     17 C6         14.6176   17.9486   29.4143 C.ar    1  lig         0.1292
     18 C7         17.6386   13.4044   25.7828 C.2     1  lig         0.9321
     19 C8         16.2317   15.3546   26.4324 C.3     1  lig        -0.0452
     20 C9         17.1598   14.2506   26.9402 C.3     1  lig        -0.0740
     21 N1         18.2741   14.8922   27.6369 N.4     1  lig        -0.8252
     22 O1         16.8497   12.5325   25.4251 O.co2   1  lig        -0.7573
     23 O2         18.7699   13.5473   25.2365 O.co2   1  lig        -0.7573
     24 O3         14.2076   18.7537   30.3116 O.3     1  lig        -0.4913
@<TRIPOS>BOND
     1     1    12    1
     2     2    13    1
     3     3    14    1
     4     4    15    1
     5     5    19    1
     6     6    19    1
     7     7    20    1
     8     8    21    1
     9     9    21    1
    10    10    21    1
    11    11    24    1
    12    12    14   ar
    13    12    16   ar
    14    13    15   ar
    15    13    16   ar
    16    14    17   ar
    17    15    17   ar
    18    16    19    1
    19    17    24    1
    20    18    20    1
    21    18    22    1
    22    18    23    1
    23    19    20    1
    24    20    21    1
@<TRIPOS>SUBSTRUCTURE
     1 lig         1 TEMP              0 ****  ****    0 ROOT


########## Name:		ligand
########## HA_RMSDs:		18.0055
########## HA_RMSDh:		17.9694
########## HA_RMSDm:		16.6545
########## Cluster Size:	1
##########    Grid Score:          -15.857744
##########      Grid_vdw:          -10.442514
##########       Grid_es:           -5.415230
##########    Int_energy:            3.258791

@<TRIPOS>MOLECULE
ligand
 24 24 1 0 0
SMALL
No Charge or Current Charge


@<TRIPOS>ATOM
      1 H1          5.1157    6.8937   28.3372 H       1  lig         0.1340
      2 H2          7.7362    8.0817   25.1849 H       1  lig         0.1340
      3 H3          3.2844    6.7962   26.7292 H       1  lig         0.1475
      4 H4          5.8806    8.0337   23.5651 H       1  lig         0.1475
      5 H5          7.6207    6.6594   28.4787 H       1  lig         0.0877
      6 H6          8.6458    7.4775   27.3428 H       1  lig         0.0877
      7 H7          8.7503    9.0773   28.9816 H       1  lig         0.0966
      8 H8          7.5033    7.6453   30.5247 H       1  lig         0.4431
      9 H9          6.9774    9.2086   30.7048 H       1  lig         0.4431
     10 H10         6.0596    8.1229   29.8367 H       1  lig         0.4431
     11 H11         2.6176    7.2891   24.8459 H       1  lig         0.4214
     12 C1          5.2954    7.1518   27.2966 C.ar    1  lig        -0.0999
     13 C2          6.7399    7.8060   25.5224 C.ar    1  lig        -0.0999
     14 C3          4.2714    7.0928   26.3918 C.ar    1  lig        -0.1787
     15 C4          5.7044    7.7885   24.6076 C.ar    1  lig        -0.1787
     16 C5          6.5344    7.5156   26.8662 C.ar    1  lig        -0.1394
     17 C6          4.4452    7.4328   25.0763 C.ar    1  lig         0.1292
     18 C7          7.0508    9.9587   28.0976 C.2     1  lig         0.9321
     19 C8          7.6812    7.5610   27.8580 C.3     1  lig        -0.0452
     20 C9          7.7200    8.7845   28.7742 C.3     1  lig        -0.0740
     21 N1          7.0482    8.4262   30.0228 N.4     1  lig        -0.8252
     22 O1          5.9211   10.2121   28.5103 O.co2   1  lig        -0.7573
     23 O2          7.5828   10.6177   27.1587 O.co2   1  lig        -0.7573
     24 O3          3.4483    7.3373   24.2898 O.3     1  lig        -0.4913
@<TRIPOS>BOND
     1     1    12    1
     2     2    13    1
     3     3    14    1
     4     4    15    1
     5     5    19    1
     6     6    19    1
     7     7    20    1
     8     8    21    1
     9     9    21    1
    10    10    21    1
    11    11    24    1
    12    12    14   ar
    13    12    16   ar
    14    13    15   ar
    15    13    16   ar
    16    14    17   ar
    17    15    17   ar
    18    16    19    1
    19    17    24    1
    20    18    20    1
    21    18    22    1
    22    18    23    1
    23    19    20    1
    24    20    21    1
@<TRIPOS>SUBSTRUCTURE
     1 lig         1 TEMP              0 ****  ****    0 ROOT


########## Name:		ligand
########## HA_RMSDs:		10.5079
########## HA_RMSDh:		10.4316
########## HA_RMSDm:		8.6983
########## Cluster Size:	1
##########    Grid Score:          -15.795706
##########      Grid_vdw:          -14.384423
##########       Grid_es:           -1.411283
##########    Int_energy:            3.216333

@<TRIPOS>MOLECULE
ligand
 24 24 1 0 0
SMALL
No Charge or Current Charge


@<TRIPOS>ATOM
      1 H1         13.7529   10.8281   21.2721 H       1  lig         0.1340
      2 H2         13.9295   12.0341   25.3624 H       1  lig         0.1340
      3 H3         11.3191   10.9467   21.3799 H       1  lig         0.1475
      4 H4         11.4705   12.1075   25.4925 H       1  lig         0.1475
      5 H5         15.8053   11.6104   22.2291 H       1  lig         0.0877
      6 H6         15.9524   12.1267   23.8791 H       1  lig         0.0877
      7 H7         17.2050   10.1224   23.8167 H       1  lig         0.0966
      8 H8         16.4023    9.4342   21.6102 H       1  lig         0.4431
      9 H9         16.3076    8.1371   22.6406 H       1  lig         0.4431
     10 H10        14.9296    8.9916   22.2592 H       1  lig         0.4431
     11 H11         9.7080   12.5216   23.4530 H       1  lig         0.4214
     12 C1         13.2656   11.1034   22.2040 C.ar    1  lig        -0.0999
     13 C2         13.3406   11.7840   24.4830 C.ar    1  lig        -0.0999
     14 C3         11.9012   11.1760   22.2657 C.ar    1  lig        -0.1787
     15 C4         11.9619   11.8216   24.5679 C.ar    1  lig        -0.1787
     16 C5         13.9919   11.4014   23.3160 C.ar    1  lig        -0.1394
     17 C6         11.2432   11.4941   23.4242 C.ar    1  lig         0.1292
     18 C7         15.5054    9.4564   24.8725 C.2     1  lig         0.9321
     19 C8         15.5063   11.3466   23.2504 C.3     1  lig        -0.0452
     20 C9         16.1396   10.0032   23.6142 C.3     1  lig        -0.0740
     21 N1         15.9512    9.1010   22.4788 N.4     1  lig        -0.8252
     22 O1         14.7447    8.5080   24.6923 O.co2   1  lig        -0.7573
     23 O2         15.7051    9.9441   26.0219 O.co2   1  lig        -0.7573
     24 O3          9.9717   11.5576   23.4002 O.3     1  lig        -0.4913
@<TRIPOS>BOND
     1     1    12    1
     2     2    13    1
     3     3    14    1
     4     4    15    1
     5     5    19    1
     6     6    19    1
     7     7    20    1
     8     8    21    1
     9     9    21    1
    10    10    21    1
    11    11    24    1
    12    12    14   ar
    13    12    16   ar
    14    13    15   ar
    15    13    16   ar
    16    14    17   ar
    17    15    17   ar
    18    16    19    1
    19    17    24    1
    20    18    20    1
    21    18    22    1
    22    18    23    1
    23    19    20    1
    24    20    21    1
@<TRIPOS>SUBSTRUCTURE
     1 lig         1 TEMP              0 ****  ****    0 ROOT


########## Name:		ligand
########## HA_RMSDs:		13.9543
########## HA_RMSDh:		13.8423
########## HA_RMSDm:		10.1006
########## Cluster Size:	1
##########    Grid Score:          -15.772939
##########      Grid_vdw:          -14.308875
##########       Grid_es:           -1.464063
##########    Int_energy:            3.362439

@<TRIPOS>MOLECULE
ligand
 24 24 1 0 0
SMALL
No Charge or Current Charge


@<TRIPOS>ATOM
      1 H1         16.5922   17.7772   29.2291 H       1  lig         0.1340
      2 H2         16.5241   14.3239   31.7363 H       1  lig         0.1340
      3 H3         16.5986   16.3151   27.2769 H       1  lig         0.1475
      4 H4         16.5809   12.8411   29.7698 H       1  lig         0.1475
      5 H5         17.1184   16.5440   32.6195 H       1  lig         0.0877
      6 H6         17.1182   17.9703   31.6314 H       1  lig         0.0877
      7 H7         15.2478   18.1765   33.1287 H       1  lig         0.0966
      8 H8         15.1131   15.7998   33.6941 H       1  lig         0.4431
      9 H9         13.6028   16.3307   33.2582 H       1  lig         0.4431
     10 H10        14.5129   15.4497   32.1765 H       1  lig         0.4431
     11 H11        17.0506   12.9373   27.5192 H       1  lig         0.4214
     12 C1         16.5960   16.6982   29.3615 C.ar    1  lig        -0.0999
     13 C2         16.5506   14.7591   30.7401 C.ar    1  lig        -0.0999
     14 C3         16.5941   15.8760   28.2685 C.ar    1  lig        -0.1787
     15 C4         16.5891   13.9191   29.6436 C.ar    1  lig        -0.1787
     16 C5         16.5808   16.1422   30.6039 C.ar    1  lig        -0.1394
     17 C6         16.6240   14.5117   28.3869 C.ar    1  lig         0.1292
     18 C7         14.3296   17.9924   31.2393 C.2     1  lig         0.9321
     19 C8         16.5589   17.0463   31.8217 C.3     1  lig        -0.0452
     20 C9         15.1728   17.4137   32.3524 C.3     1  lig        -0.0740
     21 N1         14.5739   16.2010   32.9085 N.4     1  lig        -0.8252
     22 O1         13.5701   17.1895   30.7016 O.co2   1  lig        -0.7573
     23 O2         14.4100   19.1952   30.8577 O.co2   1  lig        -0.7573
     24 O3         16.6042   13.8115   27.3236 O.3     1  lig        -0.4913
@<TRIPOS>BOND
     1     1    12    1
     2     2    13    1
     3     3    14    1
     4     4    15    1
     5     5    19    1
     6     6    19    1
     7     7    20    1
     8     8    21    1
     9     9    21    1
    10    10    21    1
    11    11    24    1
    12    12    14   ar
    13    12    16   ar
    14    13    15   ar
    15    13    16   ar
    16    14    17   ar
    17    15    17   ar
    18    16    19    1
    19    17    24    1
    20    18    20    1
    21    18    22    1
    22    18    23    1
    23    19    20    1
    24    20    21    1
@<TRIPOS>SUBSTRUCTURE
     1 lig         1 TEMP              0 ****  ****    0 ROOT


########## Name:		ligand
########## HA_RMSDs:		14.3470
########## HA_RMSDh:		14.3391
########## HA_RMSDm:		12.2270
########## Cluster Size:	1
##########    Grid Score:          -15.750306
##########      Grid_vdw:          -14.970879
##########       Grid_es:           -0.779428
##########    Int_energy:            1.839053

@<TRIPOS>MOLECULE
ligand
 24 24 1 0 0
SMALL
No Charge or Current Charge


@<TRIPOS>ATOM
      1 H1         26.1118    6.2627   13.1047 H       1  lig         0.1340
      2 H2         22.1238    4.7539   13.2919 H       1  lig         0.1340
      3 H3         25.2526    8.3054   12.0857 H       1  lig         0.1475
      4 H4         21.2550    6.7935   12.2174 H       1  lig         0.1475
      5 H5         23.8582    3.4147   14.0032 H       1  lig         0.0877
      6 H6         25.3988    3.5867   13.2236 H       1  lig         0.0877
      7 H7         26.1345    5.0652   15.2067 H       1  lig         0.0966
      8 H8         26.7120    2.7011   14.9538 H       1  lig         0.4431
      9 H9         26.4325    3.0130   16.5593 H       1  lig         0.4431
     10 H10        25.2639    2.2496   15.6503 H       1  lig         0.4431
     11 H11        21.8521    8.7860   11.5408 H       1  lig         0.4214
     12 C1         25.0470    6.3636   12.9101 C.ar    1  lig        -0.0999
     13 C2         22.8148    5.5454   13.0113 C.ar    1  lig        -0.0999
     14 C3         24.5618    7.5101   12.3438 C.ar    1  lig        -0.1787
     15 C4         22.3186    6.6826   12.4031 C.ar    1  lig        -0.1787
     16 C5         24.1748    5.3722   13.2408 C.ar    1  lig        -0.1394
     17 C6         23.2321    7.6715   12.0576 C.ar    1  lig         0.1292
     18 C7         24.3489    4.7290   16.2770 C.2     1  lig         0.9321
     19 C8         24.7010    4.1068   13.8910 C.3     1  lig        -0.0452
     20 C9         25.3703    4.2880   15.2537 C.3     1  lig        -0.0740
     21 N1         25.9854    3.0128   15.6200 N.4     1  lig        -0.8252
     22 O1         24.2134    5.9468   16.3736 O.co2   1  lig        -0.7573
     23 O2         23.7011    3.9244   17.0062 O.co2   1  lig        -0.7573
     24 O3         22.8528    8.7736   11.5449 O.3     1  lig        -0.4913
@<TRIPOS>BOND
     1     1    12    1
     2     2    13    1
     3     3    14    1
     4     4    15    1
     5     5    19    1
     6     6    19    1
     7     7    20    1
     8     8    21    1
     9     9    21    1
    10    10    21    1
    11    11    24    1
    12    12    14   ar
    13    12    16   ar
    14    13    15   ar
    15    13    16   ar
    16    14    17   ar
    17    15    17   ar
    18    16    19    1
    19    17    24    1
    20    18    20    1
    21    18    22    1
    22    18    23    1
    23    19    20    1
    24    20    21    1
@<TRIPOS>SUBSTRUCTURE
     1 lig         1 TEMP              0 ****  ****    0 ROOT


########## Name:		ligand
########## HA_RMSDs:		10.1424
########## HA_RMSDh:		10.1211
########## HA_RMSDm:		8.2940
########## Cluster Size:	1
##########    Grid Score:          -15.739244
##########      Grid_vdw:          -15.283891
##########       Grid_es:           -0.455353
##########    Int_energy:            2.833752

@<TRIPOS>MOLECULE
ligand
 24 24 1 0 0
SMALL
No Charge or Current Charge


@<TRIPOS>ATOM
      1 H1         16.7826   16.1612   25.7427 H       1  lig         0.1340
      2 H2         13.9273   13.5779   27.5838 H       1  lig         0.1340
      3 H3         15.9235   18.0077   27.0848 H       1  lig         0.1475
      4 H4         13.0216   15.4491   28.9058 H       1  lig         0.1475
      5 H5         15.0973   12.9347   25.5173 H       1  lig         0.0877
      6 H6         16.2850   13.9504   24.7636 H       1  lig         0.0877
      7 H7         16.8070   11.7248   26.3871 H       1  lig         0.0966
      8 H8         16.3230   13.1125   28.3434 H       1  lig         0.4431
      9 H9         17.9494   12.7856   28.3106 H       1  lig         0.4431
     10 H10        17.3960   14.2754   27.8119 H       1  lig         0.4431
     11 H11        13.0500   17.7899   28.8724 H       1  lig         0.4214
     12 C1         15.9547   15.9931   26.4268 C.ar    1  lig        -0.0999
     13 C2         14.3595   14.5695   27.4715 C.ar    1  lig        -0.0999
     14 C3         15.4745   17.0256   27.1846 C.ar    1  lig        -0.1787
     15 C4         13.8402   15.6138   28.2125 C.ar    1  lig        -0.1787
     16 C5         15.3940   14.7602   26.5627 C.ar    1  lig        -0.1394
     17 C6         14.4174   16.8665   28.0410 C.ar    1  lig         0.1292
     18 C7         18.3391   12.9604   25.6305 C.2     1  lig         0.9321
     19 C8         15.9356   13.6040   25.7437 C.3     1  lig        -0.0452
     20 C9         17.0498   12.7883   26.4003 C.3     1  lig        -0.0740
     21 N1         17.1812   13.2473   27.7826 N.4     1  lig        -0.8252
     22 O1         18.8885   14.0485   25.7880 O.co2   1  lig        -0.7573
     23 O2         18.8116   12.0788   24.8569 O.co2   1  lig        -0.7573
     24 O3         14.0367   17.8705   28.7254 O.3     1  lig        -0.4913
@<TRIPOS>BOND
     1     1    12    1
     2     2    13    1
     3     3    14    1
     4     4    15    1
     5     5    19    1
     6     6    19    1
     7     7    20    1
     8     8    21    1
     9     9    21    1
    10    10    21    1
    11    11    24    1
    12    12    14   ar
    13    12    16   ar
    14    13    15   ar
    15    13    16   ar
    16    14    17   ar
    17    15    17   ar
    18    16    19    1
    19    17    24    1
    20    18    20    1
    21    18    22    1
    22    18    23    1
    23    19    20    1
    24    20    21    1
@<TRIPOS>SUBSTRUCTURE
     1 lig         1 TEMP              0 ****  ****    0 ROOT


########## Name:		ligand
########## HA_RMSDs:		11.5405
########## HA_RMSDh:		11.4957
########## HA_RMSDm:		9.8075
########## Cluster Size:	1
##########    Grid Score:          -15.739023
##########      Grid_vdw:          -14.230575
##########       Grid_es:           -1.508449
##########    Int_energy:            4.024639

@<TRIPOS>MOLECULE
ligand
 24 24 1 0 0
SMALL
No Charge or Current Charge


@<TRIPOS>ATOM
      1 H1         12.6600    7.3746   23.7257 H       1  lig         0.1340
      2 H2         13.2626    9.8566   20.3063 H       1  lig         0.1340
      3 H3         10.2508    7.6055   23.4238 H       1  lig         0.1475
      4 H4         10.8309   10.1348   20.0253 H       1  lig         0.1475
      5 H5         14.7961    7.4745   22.6526 H       1  lig         0.0877
      6 H6         15.1142    8.4412   21.2473 H       1  lig         0.0877
      7 H7         15.9624   10.1375   22.5040 H       1  lig         0.0966
      8 H8         16.7922    8.1982   23.7440 H       1  lig         0.4431
      9 H9         16.5216    9.4385   24.8124 H       1  lig         0.4431
     10 H10        15.4218    8.1928   24.6968 H       1  lig         0.4431
     11 H11         8.8815    9.8518   21.2761 H       1  lig         0.4214
     12 C1         12.2728    7.9869   22.9153 C.ar    1  lig        -0.0999
     13 C2         12.5852    9.3667   21.0019 C.ar    1  lig        -0.0999
     14 C3         10.9222    8.1137   22.7404 C.ar    1  lig        -0.1787
     15 C4         11.2232    9.5343   20.8399 C.ar    1  lig        -0.1787
     16 C5         13.1112    8.6192   22.0492 C.ar    1  lig        -0.1394
     17 C6         10.3892    8.8942   21.7491 C.ar    1  lig         0.1292
     18 C7         14.2537   10.4348   23.7035 C.2     1  lig         0.9321
     19 C8         14.6104    8.4651   22.2212 C.3     1  lig        -0.0452
     20 C9         15.2907    9.5165   23.0985 C.3     1  lig        -0.0740
     21 N1         16.0530    8.8108   24.1279 N.4     1  lig        -0.8252
     22 O1         13.7585   10.0278   24.7522 O.co2   1  lig        -0.7573
     23 O2         13.8897   11.5218   23.1700 O.co2   1  lig        -0.7573
     24 O3          9.1219    8.9505   21.6386 O.3     1  lig        -0.4913
@<TRIPOS>BOND
     1     1    12    1
     2     2    13    1
     3     3    14    1
     4     4    15    1
     5     5    19    1
     6     6    19    1
     7     7    20    1
     8     8    21    1
     9     9    21    1
    10    10    21    1
    11    11    24    1
    12    12    14   ar
    13    12    16   ar
    14    13    15   ar
    15    13    16   ar
    16    14    17   ar
    17    15    17   ar
    18    16    19    1
    19    17    24    1
    20    18    20    1
    21    18    22    1
    22    18    23    1
    23    19    20    1
    24    20    21    1
@<TRIPOS>SUBSTRUCTURE
     1 lig         1 TEMP              0 ****  ****    0 ROOT


########## Name:		ligand
########## HA_RMSDs:		13.2318
########## HA_RMSDh:		13.1670
########## HA_RMSDm:		9.6766
########## Cluster Size:	1
##########    Grid Score:          -15.728902
##########      Grid_vdw:          -14.869411
##########       Grid_es:           -0.859491
##########    Int_energy:            2.757179

@<TRIPOS>MOLECULE
ligand
 24 24 1 0 0
SMALL
No Charge or Current Charge


@<TRIPOS>ATOM
      1 H1         16.8147   15.4459   30.5092 H       1  lig         0.1340
      2 H2         13.7213   14.8271   27.6346 H       1  lig         0.1340
      3 H3         18.4683   15.0111   28.7699 H       1  lig         0.1475
      4 H4         15.3850   14.3378   25.8848 H       1  lig         0.1475
      5 H5         13.1845   14.9818   29.9370 H       1  lig         0.0877
      6 H6         14.3820   14.9047   31.1903 H       1  lig         0.0877
      7 H7         12.8324   17.1011   30.7233 H       1  lig         0.0966
      8 H8         13.9046   17.4769   28.5563 H       1  lig         0.4431
      9 H9         14.3184   18.7168   29.5782 H       1  lig         0.4431
     10 H10        15.4093   17.4942   29.2784 H       1  lig         0.4431
     11 H11        17.5571   14.4931   25.4762 H       1  lig         0.4214
     12 C1         16.4882   15.1983   29.5023 C.ar    1  lig        -0.0999
     13 C2         14.7800   14.8563   27.8813 C.ar    1  lig        -0.0999
     14 C3         17.4134   14.9593   28.5238 C.ar    1  lig        -0.1787
     15 C4         15.7052   14.5739   26.8946 C.ar    1  lig        -0.1787
     16 C5         15.1655   15.1413   29.1861 C.ar    1  lig        -0.1394
     17 C6         17.0487   14.6195   27.2479 C.ar    1  lig         0.1292
     18 C7         14.5987   17.2772   31.8617 C.2     1  lig         0.9321
     19 C8         14.1326   15.4281   30.2593 C.3     1  lig        -0.0452
     20 C9         13.8955   16.9050   30.5765 C.3     1  lig        -0.0740
     21 N1         14.3899   17.6877   29.4445 N.4     1  lig        -0.8252
     22 O1         14.0272   16.9057   32.8845 O.co2   1  lig        -0.7573
     23 O2         15.6718   17.9449   31.9005 O.co2   1  lig        -0.7573
     24 O3         17.9669   14.4276   26.3869 O.3     1  lig        -0.4913
@<TRIPOS>BOND
     1     1    12    1
     2     2    13    1
     3     3    14    1
     4     4    15    1
     5     5    19    1
     6     6    19    1
     7     7    20    1
     8     8    21    1
     9     9    21    1
    10    10    21    1
    11    11    24    1
    12    12    14   ar
    13    12    16   ar
    14    13    15   ar
    15    13    16   ar
    16    14    17   ar
    17    15    17   ar
    18    16    19    1
    19    17    24    1
    20    18    20    1
    21    18    22    1
    22    18    23    1
    23    19    20    1
    24    20    21    1
@<TRIPOS>SUBSTRUCTURE
     1 lig         1 TEMP              0 ****  ****    0 ROOT


########## Name:		ligand
########## HA_RMSDs:		14.0401
########## HA_RMSDh:		14.0082
########## HA_RMSDm:		11.8672
########## Cluster Size:	1
##########    Grid Score:          -15.728811
##########      Grid_vdw:          -15.104063
##########       Grid_es:           -0.624748
##########    Int_energy:            1.452980

@<TRIPOS>MOLECULE
ligand
 24 24 1 0 0
SMALL
No Charge or Current Charge


@<TRIPOS>ATOM
      1 H1          9.5065   11.6796   28.7330 H       1  lig         0.1340
      2 H2         12.4092   12.0824   25.6301 H       1  lig         0.1340
      3 H3          7.7461   11.7560   27.0465 H       1  lig         0.1475
      4 H4         10.6344   12.2104   23.9264 H       1  lig         0.1475
      5 H5         12.1173   10.8475   28.8066 H       1  lig         0.0877
      6 H6         13.1543   11.8649   27.8578 H       1  lig         0.0877
      7 H7         11.0838   13.2206   29.6018 H       1  lig         0.0966
      8 H8         12.5481   14.4700   28.0913 H       1  lig         0.4431
      9 H9         12.9740   14.8188   29.6565 H       1  lig         0.4431
     10 H10        13.8951   13.7530   28.7677 H       1  lig         0.4431
     11 H11         8.2872   11.3535   23.8669 H       1  lig         0.4214
     12 C1          9.7668   11.8025   27.6847 C.ar    1  lig        -0.0999
     13 C2         11.3681   12.0203   25.9380 C.ar    1  lig        -0.0999
     14 C3          8.7819   11.8401   26.7364 C.ar    1  lig        -0.1787
     15 C4         10.3797   12.0998   24.9756 C.ar    1  lig        -0.1787
     16 C5         11.0657   11.8990   27.2894 C.ar    1  lig        -0.1394
     17 C6          9.0610   12.0183   25.4073 C.ar    1  lig         0.1292
     18 C7         12.6407   12.3455   30.7229 C.2     1  lig         0.9321
     19 C8         12.1658   11.8345   28.3318 C.3     1  lig        -0.0452
     20 C9         12.1126   12.9053   29.4220 C.3     1  lig        -0.0740
     21 N1         12.9052   14.0457   28.9639 N.4     1  lig        -0.8252
     22 O1         13.7692   11.8635   30.6526 O.co2   1  lig        -0.7573
     23 O2         11.9757   12.3362   31.7983 O.co2   1  lig        -0.7573
     24 O3          8.0920   12.0267   24.5813 O.3     1  lig        -0.4913
@<TRIPOS>BOND
     1     1    12    1
     2     2    13    1
     3     3    14    1
     4     4    15    1
     5     5    19    1
     6     6    19    1
     7     7    20    1
     8     8    21    1
     9     9    21    1
    10    10    21    1
    11    11    24    1
    12    12    14   ar
    13    12    16   ar
    14    13    15   ar
    15    13    16   ar
    16    14    17   ar
    17    15    17   ar
    18    16    19    1
    19    17    24    1
    20    18    20    1
    21    18    22    1
    22    18    23    1
    23    19    20    1
    24    20    21    1
@<TRIPOS>SUBSTRUCTURE
     1 lig         1 TEMP              0 ****  ****    0 ROOT


########## Name:		ligand
########## HA_RMSDs:		14.5796
########## HA_RMSDh:		14.4832
########## HA_RMSDm:		12.3096
########## Cluster Size:	1
##########    Grid Score:          -15.707942
##########      Grid_vdw:          -15.357623
##########       Grid_es:           -0.350319
##########    Int_energy:            3.201904

@<TRIPOS>MOLECULE
ligand
 24 24 1 0 0
SMALL
No Charge or Current Charge


@<TRIPOS>ATOM
      1 H1          6.8800    8.6920   21.5508 H       1  lig         0.1340
      2 H2          9.9922    6.4071   23.3701 H       1  lig         0.1340
      3 H3          5.7146    6.6158   21.0215 H       1  lig         0.1475
      4 H4          8.8449    4.3044   22.7944 H       1  lig         0.1475
      5 H5          8.5141    9.7851   22.7467 H       1  lig         0.0877
      6 H6          9.5517    8.9677   23.8719 H       1  lig         0.0877
      7 H7         11.2846    8.6396   22.1744 H       1  lig         0.0966
      8 H8         11.1034   10.8409   23.2271 H       1  lig         0.4431
      9 H9         11.6246   11.0384   21.6643 H       1  lig         0.4431
     10 H10        10.0324   11.3412   22.0488 H       1  lig         0.4431
     11 H11         7.0037    3.5125   21.9273 H       1  lig         0.4214
     12 C1          7.3242    7.7379   21.8231 C.ar    1  lig        -0.0999
     13 C2          9.0442    6.4444   22.8386 C.ar    1  lig        -0.0999
     14 C3          6.6703    6.5723   21.5324 C.ar    1  lig        -0.1787
     15 C4          8.4117    5.2594   22.5144 C.ar    1  lig        -0.1787
     16 C5          8.5189    7.6783   22.4728 C.ar    1  lig        -0.1394
     17 C6          7.2029    5.3470   21.8338 C.ar    1  lig         0.1292
     18 C7         10.1083    9.1177   20.4907 C.2     1  lig         0.9321
     19 C8          9.2400    8.9668   22.8204 C.3     1  lig        -0.0452
     20 C9         10.4508    9.3067   21.9507 C.3     1  lig        -0.0740
     21 N1         10.8328   10.6882   22.2410 N.4     1  lig        -0.8252
     22 O1          9.0771    9.6804   20.1294 O.co2   1  lig        -0.7573
     23 O2         10.7984    8.4138   19.6988 O.co2   1  lig        -0.7573
     24 O3          6.5277    4.3063   21.5465 O.3     1  lig        -0.4913
@<TRIPOS>BOND
     1     1    12    1
     2     2    13    1
     3     3    14    1
     4     4    15    1
     5     5    19    1
     6     6    19    1
     7     7    20    1
     8     8    21    1
     9     9    21    1
    10    10    21    1
    11    11    24    1
    12    12    14   ar
    13    12    16   ar
    14    13    15   ar
    15    13    16   ar
    16    14    17   ar
    17    15    17   ar
    18    16    19    1
    19    17    24    1
    20    18    20    1
    21    18    22    1
    22    18    23    1
    23    19    20    1
    24    20    21    1
@<TRIPOS>SUBSTRUCTURE
     1 lig         1 TEMP              0 ****  ****    0 ROOT


########## Name:		ligand
########## HA_RMSDs:		13.8195
########## HA_RMSDh:		13.7732
########## HA_RMSDm:		12.3734
########## Cluster Size:	1
##########    Grid Score:          -15.681206
##########      Grid_vdw:          -16.324024
##########       Grid_es:            0.642818
##########    Int_energy:            1.308220

@<TRIPOS>MOLECULE
ligand
 24 24 1 0 0
SMALL
No Charge or Current Charge


@<TRIPOS>ATOM
      1 H1          9.6697   10.7688   22.2973 H       1  lig         0.1340
      2 H2          8.6416    7.7539   25.1378 H       1  lig         0.1340
      3 H3          9.0050   12.4687   23.9151 H       1  lig         0.1475
      4 H4          7.9215    9.4642   26.7581 H       1  lig         0.1475
      5 H5          9.9131    8.6051   21.6930 H       1  lig         0.0877
      6 H6         10.5077    7.5775   22.9583 H       1  lig         0.0877
      7 H7          7.7007    7.1093   22.9459 H       1  lig         0.0966
      8 H8          9.5203    5.5155   23.3144 H       1  lig         0.4431
      9 H9          8.5476    4.9426   22.0985 H       1  lig         0.4431
     10 H10        10.0018    5.6628   21.7231 H       1  lig         0.4431
     11 H11         7.7413   11.6204   27.0479 H       1  lig         0.4214
     12 C1          9.2827   10.4695   23.2681 C.ar    1  lig        -0.0999
     13 C2          8.7100    8.8056   24.8699 C.ar    1  lig        -0.0999
     14 C3          8.9143   11.4207   24.1792 C.ar    1  lig        -0.1787
     15 C4          8.2974    9.7571   25.7830 C.ar    1  lig        -0.1787
     16 C5          9.1758    9.1558   23.6078 C.ar    1  lig        -0.1394
     17 C6          8.3984   11.0906   25.4043 C.ar    1  lig         0.1292
     18 C7          8.0115    7.3020   20.8691 C.2     1  lig         0.9321
     19 C8          9.6043    8.0943   22.6125 C.3     1  lig        -0.0452
     20 C9          8.5467    7.0479   22.2597 C.3     1  lig        -0.0740
     21 N1          9.1725    5.7304   22.3648 N.4     1  lig        -0.8252
     22 O1          6.8877    7.7984   20.8355 O.co2   1  lig        -0.7573
     23 O2          8.6423    7.0038   19.8146 O.co2   1  lig        -0.7573
     24 O3          8.0929   12.0316   26.2059 O.3     1  lig        -0.4913
@<TRIPOS>BOND
     1     1    12    1
     2     2    13    1
     3     3    14    1
     4     4    15    1
     5     5    19    1
     6     6    19    1
     7     7    20    1
     8     8    21    1
     9     9    21    1
    10    10    21    1
    11    11    24    1
    12    12    14   ar
    13    12    16   ar
    14    13    15   ar
    15    13    16   ar
    16    14    17   ar
    17    15    17   ar
    18    16    19    1
    19    17    24    1
    20    18    20    1
    21    18    22    1
    22    18    23    1
    23    19    20    1
    24    20    21    1
@<TRIPOS>SUBSTRUCTURE
     1 lig         1 TEMP              0 ****  ****    0 ROOT


########## Name:		ligand
########## HA_RMSDs:		12.8181
########## HA_RMSDh:		12.7414
########## HA_RMSDm:		8.8457
########## Cluster Size:	1
##########    Grid Score:          -15.644572
##########      Grid_vdw:          -14.896707
##########       Grid_es:           -0.747866
##########    Int_energy:            1.468322

@<TRIPOS>MOLECULE
ligand
 24 24 1 0 0
SMALL
No Charge or Current Charge


@<TRIPOS>ATOM
      1 H1         17.5007   18.3655   30.0476 H       1  lig         0.1340
      2 H2         18.9507   14.8951   28.0302 H       1  lig         0.1340
      3 H3         15.9172   18.7182   28.2265 H       1  lig         0.1475
      4 H4         17.3881   15.2737   26.1636 H       1  lig         0.1475
      5 H5         18.7369   16.0549   31.1502 H       1  lig         0.0877
      6 H6         19.9824   15.5472   30.0540 H       1  lig         0.0877
      7 H7         19.5292   18.4195   31.0072 H       1  lig         0.0966
      8 H8         20.3715   18.2799   28.7141 H       1  lig         0.4431
      9 H9         21.6031   18.7845   29.7048 H       1  lig         0.4431
     10 H10        21.5530   17.2012   29.1899 H       1  lig         0.4431
     11 H11        15.8575   16.6543   25.4247 H       1  lig         0.4214
     12 C1         17.4908   17.6847   29.2002 C.ar    1  lig        -0.0999
     13 C2         18.2786   15.7495   28.0614 C.ar    1  lig        -0.0999
     14 C3         16.6001   17.8770   28.1802 C.ar    1  lig        -0.1787
     15 C4         17.4105   15.9571   27.0065 C.ar    1  lig        -0.1787
     16 C5         18.3395   16.6221   29.1418 C.ar    1  lig        -0.1394
     17 C6         16.5681   17.0601   27.0812 C.ar    1  lig         0.1292
     18 C7         21.0476   17.2292   31.8584 C.2     1  lig         0.9321
     19 C8         19.3145   16.3874   30.2798 C.3     1  lig        -0.0452
     20 C9         20.1639   17.5918   30.6870 C.3     1  lig        -0.0740
     21 N1         20.9505   17.9953   29.5221 N.4     1  lig        -0.8252
     22 O1         20.5452   17.4330   32.9615 O.co2   1  lig        -0.7573
     23 O2         22.2235   16.7819   31.7318 O.co2   1  lig        -0.7573
     24 O3         15.6999   17.2926   26.1793 O.3     1  lig        -0.4913
@<TRIPOS>BOND
     1     1    12    1
     2     2    13    1
     3     3    14    1
     4     4    15    1
     5     5    19    1
     6     6    19    1
     7     7    20    1
     8     8    21    1
     9     9    21    1
    10    10    21    1
    11    11    24    1
    12    12    14   ar
    13    12    16   ar
    14    13    15   ar
    15    13    16   ar
    16    14    17   ar
    17    15    17   ar
    18    16    19    1
    19    17    24    1
    20    18    20    1
    21    18    22    1
    22    18    23    1
    23    19    20    1
    24    20    21    1
@<TRIPOS>SUBSTRUCTURE
     1 lig         1 TEMP              0 ****  ****    0 ROOT


########## Name:		ligand
########## HA_RMSDs:		10.7921
########## HA_RMSDh:		10.7331
########## HA_RMSDm:		8.3396
########## Cluster Size:	1
##########    Grid Score:          -15.638951
##########      Grid_vdw:          -14.448521
##########       Grid_es:           -1.190430
##########    Int_energy:            1.717071

@<TRIPOS>MOLECULE
ligand
 24 24 1 0 0
SMALL
No Charge or Current Charge


@<TRIPOS>ATOM
      1 H1         19.1357   15.5776   27.1567 H       1  lig         0.1340
      2 H2         16.7044   12.2245   26.1267 H       1  lig         0.1340
      3 H3         20.9759   14.5826   25.9027 H       1  lig         0.1475
      4 H4         18.5739   11.1901   24.9003 H       1  lig         0.1475
      5 H5         16.2037   13.7890   28.1160 H       1  lig         0.0877
      6 H6         17.0243   15.3138   28.2264 H       1  lig         0.0877
      7 H7         14.8754   14.4698   26.2733 H       1  lig         0.0966
      8 H8         16.7566   15.2495   24.9169 H       1  lig         0.4431
      9 H9         15.5713   16.4104   24.9023 H       1  lig         0.4431
     10 H10        16.9108   16.6096   25.8721 H       1  lig         0.4431
     11 H11        21.7007   12.3616   25.3173 H       1  lig         0.4214
     12 C1         19.0014   14.6136   26.6726 C.ar    1  lig        -0.0999
     13 C2         17.6617   12.7383   26.0801 C.ar    1  lig        -0.0999
     14 C3         20.0299   14.0559   25.9643 C.ar    1  lig        -0.1787
     15 C4         18.7061   12.1468   25.3955 C.ar    1  lig        -0.1787
     16 C5         17.8131   13.9529   26.7390 C.ar    1  lig        -0.1394
     17 C6         19.9146   12.8325   25.3592 C.ar    1  lig         0.1292
     18 C7         14.7653   16.1924   27.4847 C.2     1  lig         0.9321
     19 C8         16.6595   14.5750   27.5026 C.3     1  lig        -0.0452
     20 C9         15.5694   15.2234   26.6485 C.3     1  lig        -0.0740
     21 N1         16.2242   15.8936   25.5257 N.4     1  lig        -0.8252
     22 O1         15.1551   17.3570   27.4357 O.co2   1  lig        -0.7573
     23 O2         13.7880   15.8444   28.2075 O.co2   1  lig        -0.7573
     24 O3         20.9104   12.3852   24.7037 O.3     1  lig        -0.4913
@<TRIPOS>BOND
     1     1    12    1
     2     2    13    1
     3     3    14    1
     4     4    15    1
     5     5    19    1
     6     6    19    1
     7     7    20    1
     8     8    21    1
     9     9    21    1
    10    10    21    1
    11    11    24    1
    12    12    14   ar
    13    12    16   ar
    14    13    15   ar
    15    13    16   ar
    16    14    17   ar
    17    15    17   ar
    18    16    19    1
    19    17    24    1
    20    18    20    1
    21    18    22    1
    22    18    23    1
    23    19    20    1
    24    20    21    1
@<TRIPOS>SUBSTRUCTURE
     1 lig         1 TEMP              0 ****  ****    0 ROOT


########## Name:		ligand
########## HA_RMSDs:		14.2336
########## HA_RMSDh:		14.2336
########## HA_RMSDm:		12.7208
########## Cluster Size:	1
##########    Grid Score:          -15.636303
##########      Grid_vdw:          -11.811714
##########       Grid_es:           -3.824589
##########    Int_energy:            3.107584

@<TRIPOS>MOLECULE
ligand
 24 24 1 0 0
SMALL
No Charge or Current Charge


@<TRIPOS>ATOM
      1 H1         25.5920    7.0410   17.7954 H       1  lig         0.1340
      2 H2         24.9554    6.9016   13.5775 H       1  lig         0.1340
      3 H3         27.4367    8.5940   17.4292 H       1  lig         0.1475
      4 H4         26.8491    8.4307   13.1970 H       1  lig         0.1475
      5 H5         23.7357    5.9603   16.9900 H       1  lig         0.0877
      6 H6         23.1214    6.2447   15.3924 H       1  lig         0.0877
      7 H7         24.1194    4.2750   14.5035 H       1  lig         0.0966
      8 H8         22.3508    3.8206   16.1322 H       1  lig         0.4431
      9 H9         23.4687    2.5966   16.2034 H       1  lig         0.4431
     10 H10        23.4693    3.7850   17.3705 H       1  lig         0.4431
     11 H11        28.0164   10.0450   14.4595 H       1  lig         0.4214
     12 C1         25.8609    7.3323   16.7832 C.ar    1  lig        -0.0999
     13 C2         25.5193    7.2754   14.4289 C.ar    1  lig        -0.0999
     14 C3         26.8914    8.2072   16.5753 C.ar    1  lig        -0.1787
     15 C4         26.5839    8.1273   14.2048 C.ar    1  lig        -0.1787
     16 C5         25.1737    6.8569   15.7087 C.ar    1  lig        -0.1394
     17 C6         27.2816    8.5829   15.3172 C.ar    1  lig         0.1292
     18 C7         25.7138    4.0848   15.8705 C.2     1  lig         0.9321
     19 C8         24.0141    5.9046   15.9312 C.3     1  lig        -0.0452
     20 C9         24.2761    4.4420   15.5702 C.3     1  lig        -0.0740
     21 N1         23.3435    3.6202   16.3405 N.4     1  lig        -0.8252
     22 O1         26.4887    4.2457   14.9302 O.co2   1  lig        -0.7573
     23 O2         26.0995    3.6252   16.9835 O.co2   1  lig        -0.7573
     24 O3         28.2395    9.4140   15.2036 O.3     1  lig        -0.4913
@<TRIPOS>BOND
     1     1    12    1
     2     2    13    1
     3     3    14    1
     4     4    15    1
     5     5    19    1
     6     6    19    1
     7     7    20    1
     8     8    21    1
     9     9    21    1
    10    10    21    1
    11    11    24    1
    12    12    14   ar
    13    12    16   ar
    14    13    15   ar
    15    13    16   ar
    16    14    17   ar
    17    15    17   ar
    18    16    19    1
    19    17    24    1
    20    18    20    1
    21    18    22    1
    22    18    23    1
    23    19    20    1
    24    20    21    1
@<TRIPOS>SUBSTRUCTURE
     1 lig         1 TEMP              0 ****  ****    0 ROOT


########## Name:		ligand
########## HA_RMSDs:		11.5078
########## HA_RMSDh:		11.4485
########## HA_RMSDm:		9.7299
########## Cluster Size:	1
##########    Grid Score:          -15.623405
##########      Grid_vdw:          -17.290522
##########       Grid_es:            1.667117
##########    Int_energy:            1.591866

@<TRIPOS>MOLECULE
ligand
 24 24 1 0 0
SMALL
No Charge or Current Charge


@<TRIPOS>ATOM
      1 H1         16.2732   17.3479   27.7710 H       1  lig         0.1340
      2 H2         13.6489   15.3786   30.5006 H       1  lig         0.1340
      3 H3         15.6862   19.4794   28.8008 H       1  lig         0.1475
      4 H4         13.0137   17.5330   31.5125 H       1  lig         0.1475
      5 H5         16.4441   14.8891   28.3042 H       1  lig         0.0877
      6 H6         15.1472   14.0760   29.1211 H       1  lig         0.0877
      7 H7         14.3451   15.5086   26.6100 H       1  lig         0.0966
      8 H8         12.8490   14.1073   27.9459 H       1  lig         0.4431
      9 H9         13.0829   13.3831   26.4715 H       1  lig         0.4431
     10 H10        13.8987   12.8168   27.8088 H       1  lig         0.4431
     11 H11        14.2942   20.4928   29.9998 H       1  lig         0.4214
     12 C1         15.5535   17.3751   28.5852 C.ar    1  lig        -0.0999
     13 C2         14.0905   16.2973   30.1216 C.ar    1  lig        -0.0999
     14 C3         15.2266   18.5684   29.1681 C.ar    1  lig        -0.1787
     15 C4         13.7227   17.5012   30.6913 C.ar    1  lig        -0.1787
     16 C5         14.9809   16.2335   29.0560 C.ar    1  lig        -0.1394
     17 C6         14.3068   18.6539   30.1795 C.ar    1  lig         0.1292
     18 C7         15.7127   13.9710   26.1492 C.2     1  lig         0.9321
     19 C8         15.3553   14.9029   28.4313 C.3     1  lig        -0.0452
     20 C9         14.7012   14.5930   27.0844 C.3     1  lig        -0.0740
     21 N1         13.5736   13.6958   27.3338 N.4     1  lig        -0.8252
     22 O1         16.3160   13.0069   26.6150 O.co2   1  lig        -0.7573
     23 O2         15.9545   14.4144   24.9900 O.co2   1  lig        -0.7573
     24 O3         14.0661   19.7983   30.6834 O.3     1  lig        -0.4913
@<TRIPOS>BOND
     1     1    12    1
     2     2    13    1
     3     3    14    1
     4     4    15    1
     5     5    19    1
     6     6    19    1
     7     7    20    1
     8     8    21    1
     9     9    21    1
    10    10    21    1
    11    11    24    1
    12    12    14   ar
    13    12    16   ar
    14    13    15   ar
    15    13    16   ar
    16    14    17   ar
    17    15    17   ar
    18    16    19    1
    19    17    24    1
    20    18    20    1
    21    18    22    1
    22    18    23    1
    23    19    20    1
    24    20    21    1
@<TRIPOS>SUBSTRUCTURE
     1 lig         1 TEMP              0 ****  ****    0 ROOT


########## Name:		ligand
########## HA_RMSDs:		12.5636
########## HA_RMSDh:		12.5098
########## HA_RMSDm:		10.0777
########## Cluster Size:	1
##########    Grid Score:          -15.609372
##########      Grid_vdw:          -17.039125
##########       Grid_es:            1.429753
##########    Int_energy:            2.544890

@<TRIPOS>MOLECULE
ligand
 24 24 1 0 0
SMALL
No Charge or Current Charge


@<TRIPOS>ATOM
      1 H1         13.6092   12.0687   24.1116 H       1  lig         0.1340
      2 H2          9.5702   11.2314   25.2077 H       1  lig         0.1340
      3 H3         13.1367   11.2301   21.8705 H       1  lig         0.1475
      4 H4          9.0998   10.3368   22.9611 H       1  lig         0.1475
      5 H5         12.2169   11.3730   26.8228 H       1  lig         0.0877
      6 H6         12.7785   12.8863   26.1864 H       1  lig         0.0877
      7 H7          9.9135   13.0679   26.1877 H       1  lig         0.0966
      8 H8         11.5564   14.8453   26.5461 H       1  lig         0.4431
      9 H9         10.5253   14.8023   27.8453 H       1  lig         0.4431
     10 H10        12.0461   14.1353   27.9751 H       1  lig         0.4431
     11 H11        11.8313   10.3110   20.6193 H       1  lig         0.4214
     12 C1         12.6195   11.6865   23.8747 C.ar    1  lig        -0.0999
     13 C2         10.3614   11.2185   24.4617 C.ar    1  lig        -0.0999
     14 C3         12.3503   11.2207   22.6172 C.ar    1  lig        -0.1787
     15 C4         10.0895   10.7085   23.2066 C.ar    1  lig        -0.1787
     16 C5         11.6263   11.6813   24.8055 C.ar    1  lig        -0.1394
     17 C6         11.1259   10.7071   22.2805 C.ar    1  lig         0.1292
     18 C7         10.2367   12.1106   28.0386 C.2     1  lig         0.9321
     19 C8         11.9091   12.2180   26.1958 C.3     1  lig        -0.0452
     20 C9         10.7462   12.9373   26.8803 C.3     1  lig        -0.0740
     21 N1         11.2304   14.2446   27.3219 N.4     1  lig        -0.8252
     22 O1          9.2849   11.3816   27.7681 O.co2   1  lig        -0.7573
     23 O2         10.7181   12.1759   29.2060 O.co2   1  lig        -0.7573
     24 O3         10.9454   10.3071   21.0851 O.3     1  lig        -0.4913
@<TRIPOS>BOND
     1     1    12    1
     2     2    13    1
     3     3    14    1
     4     4    15    1
     5     5    19    1
     6     6    19    1
     7     7    20    1
     8     8    21    1
     9     9    21    1
    10    10    21    1
    11    11    24    1
    12    12    14   ar
    13    12    16   ar
    14    13    15   ar
    15    13    16   ar
    16    14    17   ar
    17    15    17   ar
    18    16    19    1
    19    17    24    1
    20    18    20    1
    21    18    22    1
    22    18    23    1
    23    19    20    1
    24    20    21    1
@<TRIPOS>SUBSTRUCTURE
     1 lig         1 TEMP              0 ****  ****    0 ROOT


########## Name:		ligand
########## HA_RMSDs:		15.0795
########## HA_RMSDh:		15.0795
########## HA_RMSDm:		13.1997
########## Cluster Size:	1
##########    Grid Score:          -15.578932
##########      Grid_vdw:          -15.111715
##########       Grid_es:           -0.467216
##########    Int_energy:            1.495570

@<TRIPOS>MOLECULE
ligand
 24 24 1 0 0
SMALL
No Charge or Current Charge


@<TRIPOS>ATOM
      1 H1         25.3637    6.0061   14.3231 H       1  lig         0.1340
      2 H2         21.6429    4.6462   12.7352 H       1  lig         0.1340
      3 H3         25.0461    8.1243   13.1565 H       1  lig         0.1475
      4 H4         21.3398    6.7643   11.5141 H       1  lig         0.1475
      5 H5         24.1985    4.0946   15.2813 H       1  lig         0.0877
      6 H6         22.7480    3.4389   14.5910 H       1  lig         0.0877
      7 H7         25.5619    3.1664   13.4232 H       1  lig         0.0966
      8 H8         23.8401    3.3732   11.6971 H       1  lig         0.4431
      9 H9         24.3529    1.7962   11.7525 H       1  lig         0.4431
     10 H10        22.9053    2.2195   12.4595 H       1  lig         0.4431
     11 H11        22.2618    8.7087   11.1473 H       1  lig         0.4214
     12 C1         24.4814    6.1568   13.7063 C.ar    1  lig        -0.0999
     13 C2         22.4006    5.4221   12.8157 C.ar    1  lig        -0.0999
     14 C3         24.2981    7.3456   13.0554 C.ar    1  lig        -0.1787
     15 C4         22.2247    6.6039   12.1217 C.ar    1  lig        -0.1787
     16 C5         23.5350    5.1861   13.5838 C.ar    1  lig        -0.1394
     17 C6         23.2148    7.5712   12.2480 C.ar    1  lig         0.1292
     18 C7         24.6437    1.5638   14.4408 C.2     1  lig         0.9321
     19 C8         23.7183    3.8732   14.3211 C.3     1  lig        -0.0452
     20 C9         24.5443    2.8118   13.5938 C.3     1  lig        -0.0740
     21 N1         23.8939    2.5436   12.3118 N.4     1  lig        -0.8252
     22 O1         25.6068    1.5380   15.2039 O.co2   1  lig        -0.7573
     23 O2         23.8288    0.6003   14.3600 O.co2   1  lig        -0.7573
     24 O3         23.1043    8.7092   11.6875 O.3     1  lig        -0.4913
@<TRIPOS>BOND
     1     1    12    1
     2     2    13    1
     3     3    14    1
     4     4    15    1
     5     5    19    1
     6     6    19    1
     7     7    20    1
     8     8    21    1
     9     9    21    1
    10    10    21    1
    11    11    24    1
    12    12    14   ar
    13    12    16   ar
    14    13    15   ar
    15    13    16   ar
    16    14    17   ar
    17    15    17   ar
    18    16    19    1
    19    17    24    1
    20    18    20    1
    21    18    22    1
    22    18    23    1
    23    19    20    1
    24    20    21    1
@<TRIPOS>SUBSTRUCTURE
     1 lig         1 TEMP              0 ****  ****    0 ROOT


########## Name:		ligand
########## HA_RMSDs:		14.7708
########## HA_RMSDh:		14.7708
########## HA_RMSDm:		13.2392
########## Cluster Size:	1
##########    Grid Score:          -15.564480
##########      Grid_vdw:          -15.512072
##########       Grid_es:           -0.052409
##########    Int_energy:            4.377270

@<TRIPOS>MOLECULE
ligand
 24 24 1 0 0
SMALL
No Charge or Current Charge


@<TRIPOS>ATOM
      1 H1         25.0330    4.9442   13.7523 H       1  lig         0.1340
      2 H2         21.1317    4.8893   12.0225 H       1  lig         0.1340
      3 H3         25.2013    7.3159   13.2087 H       1  lig         0.1475
      4 H4         21.3150    7.2725   11.4258 H       1  lig         0.1475
      5 H5         22.0849    2.8955   12.7321 H       1  lig         0.0877
      6 H6         23.8081    2.7252   12.8420 H       1  lig         0.0877
      7 H7         22.4875    3.8459   15.2949 H       1  lig         0.0966
      8 H8         24.8719    3.3238   15.1259 H       1  lig         0.4431
      9 H9         24.1774    2.2948   16.2268 H       1  lig         0.4431
     10 H10        24.5198    1.7516   14.6898 H       1  lig         0.4431
     11 H11        22.5784    9.0401   11.7224 H       1  lig         0.4214
     12 C1         24.2144    5.4404   13.2372 C.ar    1  lig        -0.0999
     13 C2         22.0383    5.4346   12.2743 C.ar    1  lig        -0.0999
     14 C3         24.3038    6.7715   12.9360 C.ar    1  lig        -0.1787
     15 C4         22.1342    6.7692   11.9295 C.ar    1  lig        -0.1787
     16 C5         23.0820    4.7638   12.9012 C.ar    1  lig        -0.1394
     17 C6         23.3084    7.4323   12.2662 C.ar    1  lig         0.1292
     18 C7         21.8190    1.8757   14.9508 C.2     1  lig         0.9321
     19 C8         22.9643    3.2928   13.2524 C.3     1  lig        -0.0452
     20 C9         22.8376    2.9728   14.7423 C.3     1  lig        -0.0740
     21 N1         24.1605    2.5803   15.2266 N.4     1  lig        -0.8252
     22 O1         21.7250    1.0801   14.0187 O.co2   1  lig        -0.7573
     23 O2         21.0910    1.7876   15.9809 O.co2   1  lig        -0.7573
     24 O3         23.4564    8.6757   12.0353 O.3     1  lig        -0.4913
@<TRIPOS>BOND
     1     1    12    1
     2     2    13    1
     3     3    14    1
     4     4    15    1
     5     5    19    1
     6     6    19    1
     7     7    20    1
     8     8    21    1
     9     9    21    1
    10    10    21    1
    11    11    24    1
    12    12    14   ar
    13    12    16   ar
    14    13    15   ar
    15    13    16   ar
    16    14    17   ar
    17    15    17   ar
    18    16    19    1
    19    17    24    1
    20    18    20    1
    21    18    22    1
    22    18    23    1
    23    19    20    1
    24    20    21    1
@<TRIPOS>SUBSTRUCTURE
     1 lig         1 TEMP              0 ****  ****    0 ROOT


########## Name:		ligand
########## HA_RMSDs:		13.1015
########## HA_RMSDh:		13.0376
########## HA_RMSDm:		8.8237
########## Cluster Size:	1
##########    Grid Score:          -15.454304
##########      Grid_vdw:          -15.183409
##########       Grid_es:           -0.270895
##########    Int_energy:            5.000266

@<TRIPOS>MOLECULE
ligand
 24 24 1 0 0
SMALL
No Charge or Current Charge


@<TRIPOS>ATOM
      1 H1         14.0706   15.3821   28.4154 H       1  lig         0.1340
      2 H2         16.7464   18.1197   30.3026 H       1  lig         0.1340
      3 H3         14.7906   16.2307   26.2451 H       1  lig         0.1475
      4 H4         17.4414   19.0160   28.1157 H       1  lig         0.1475
      5 H5         15.1928   16.9208   31.6030 H       1  lig         0.0877
      6 H6         13.8226   16.1128   30.9101 H       1  lig         0.0877
      7 H7         16.6000   14.8661   31.2310 H       1  lig         0.0966
      8 H8         15.3332   14.0269   29.3133 H       1  lig         0.4431
      9 H9         15.3495   12.8606   30.4933 H       1  lig         0.4431
     10 H10        13.9884   13.7955   30.2743 H       1  lig         0.4431
     11 H11        17.2512   18.6660   25.9603 H       1  lig         0.4214
     12 C1         14.8047   16.1822   28.3640 C.ar    1  lig        -0.0999
     13 C2         16.3086   17.7114   29.3947 C.ar    1  lig        -0.0999
     14 C3         15.2142   16.6562   27.1482 C.ar    1  lig        -0.1787
     15 C4         16.7001   18.2254   28.1732 C.ar    1  lig        -0.1787
     16 C5         15.3463   16.7132   29.4943 C.ar    1  lig        -0.1394
     17 C6         16.1177   17.6795   27.0353 C.ar    1  lig         0.1292
     18 C7         15.0969   14.4778   32.6582 C.2     1  lig         0.9321
     19 C8         14.9156   16.1775   30.8465 C.3     1  lig        -0.0452
     20 C9         15.5099   14.8267   31.2467 C.3     1  lig        -0.0740
     21 N1         15.0384   13.8311   30.2847 N.4     1  lig        -0.8252
     22 O1         14.9151   15.4462   33.3929 O.co2   1  lig        -0.7573
     23 O2         14.9755   13.2903   33.0752 O.co2   1  lig        -0.7573
     24 O3         16.4628   18.0562   25.8690 O.3     1  lig        -0.4913
@<TRIPOS>BOND
     1     1    12    1
     2     2    13    1
     3     3    14    1
     4     4    15    1
     5     5    19    1
     6     6    19    1
     7     7    20    1
     8     8    21    1
     9     9    21    1
    10    10    21    1
    11    11    24    1
    12    12    14   ar
    13    12    16   ar
    14    13    15   ar
    15    13    16   ar
    16    14    17   ar
    17    15    17   ar
    18    16    19    1
    19    17    24    1
    20    18    20    1
    21    18    22    1
    22    18    23    1
    23    19    20    1
    24    20    21    1
@<TRIPOS>SUBSTRUCTURE
     1 lig         1 TEMP              0 ****  ****    0 ROOT


########## Name:		ligand
########## HA_RMSDs:		13.7558
########## HA_RMSDh:		13.7133
########## HA_RMSDm:		10.9421
########## Cluster Size:	1
##########    Grid Score:          -15.439026
##########      Grid_vdw:          -16.996803
##########       Grid_es:            1.557778
##########    Int_energy:            2.971987

@<TRIPOS>MOLECULE
ligand
 24 24 1 0 0
SMALL
No Charge or Current Charge


@<TRIPOS>ATOM
      1 H1         12.3115   12.3563   24.9543 H       1  lig         0.1340
      2 H2          8.4939   10.7308   25.9537 H       1  lig         0.1340
      3 H3         11.9473   11.6918   22.6360 H       1  lig         0.1475
      4 H4          8.1410   10.0123   23.6238 H       1  lig         0.1475
      5 H5         11.2372   11.2101   27.5378 H       1  lig         0.0877
      6 H6         11.2801   12.8871   27.0945 H       1  lig         0.0877
      7 H7          8.5036   12.2643   27.2072 H       1  lig         0.0966
      8 H8          9.6424   14.3223   27.8812 H       1  lig         0.4431
      9 H9          8.7335   13.7736   29.1563 H       1  lig         0.4431
     10 H10        10.3806   13.5255   29.1485 H       1  lig         0.4431
     11 H11        10.8132   10.6384   21.3061 H       1  lig         0.4214
     12 C1         11.3968   11.8382   24.6776 C.ar    1  lig        -0.0999
     13 C2          9.2620   10.9322   25.2107 C.ar    1  lig        -0.0999
     14 C3         11.1876   11.4693   23.3773 C.ar    1  lig        -0.1787
     15 C4          9.0577   10.5193   23.9080 C.ar    1  lig        -0.1787
     16 C5         10.4361   11.5650   25.6024 C.ar    1  lig        -0.1394
     17 C6         10.0622   10.7929   22.9872 C.ar    1  lig         0.1292
     18 C7          9.1699   11.1133   28.8437 C.2     1  lig         0.9321
     19 C8         10.6492   11.9915   27.0424 C.3     1  lig        -0.0452
     20 C9          9.3794   12.2393   27.8574 C.3     1  lig        -0.0740
     21 N1          9.5291   13.5277   28.5329 N.4     1  lig        -0.8252
     22 O1          8.2885   10.3158   28.5311 O.co2   1  lig        -0.7573
     23 O2          9.8179   11.0038   29.9239 O.co2   1  lig        -0.7573
     24 O3          9.9303   10.4970   21.7557 O.3     1  lig        -0.4913
@<TRIPOS>BOND
     1     1    12    1
     2     2    13    1
     3     3    14    1
     4     4    15    1
     5     5    19    1
     6     6    19    1
     7     7    20    1
     8     8    21    1
     9     9    21    1
    10    10    21    1
    11    11    24    1
    12    12    14   ar
    13    12    16   ar
    14    13    15   ar
    15    13    16   ar
    16    14    17   ar
    17    15    17   ar
    18    16    19    1
    19    17    24    1
    20    18    20    1
    21    18    22    1
    22    18    23    1
    23    19    20    1
    24    20    21    1
@<TRIPOS>SUBSTRUCTURE
     1 lig         1 TEMP              0 ****  ****    0 ROOT


########## Name:		ligand
########## HA_RMSDs:		14.4090
########## HA_RMSDh:		14.3219
########## HA_RMSDm:		12.6345
########## Cluster Size:	1
##########    Grid Score:          -15.426488
##########      Grid_vdw:          -15.759727
##########       Grid_es:            0.333239
##########    Int_energy:            2.962057

@<TRIPOS>MOLECULE
ligand
 24 24 1 0 0
SMALL
No Charge or Current Charge


@<TRIPOS>ATOM
      1 H1          6.2383    8.5209   24.4098 H       1  lig         0.1340
      2 H2         10.1823    8.1456   22.8224 H       1  lig         0.1340
      3 H3          5.3626    7.4878   22.3813 H       1  lig         0.1475
      4 H4          9.3005    7.1472   20.7500 H       1  lig         0.1475
      5 H5          8.0685    8.9071   25.7915 H       1  lig         0.0877
      6 H6          9.6962    8.4965   25.3526 H       1  lig         0.0877
      7 H7          9.3512   10.9423   25.9019 H       1  lig         0.0966
      8 H8          7.1551   11.1353   24.8403 H       1  lig         0.4431
      9 H9          8.1831   12.2353   24.1429 H       1  lig         0.4431
     10 H10         7.8251   10.8177   23.3449 H       1  lig         0.4431
     11 H11         5.9264    6.2099   20.7258 H       1  lig         0.4214
     12 C1          6.9190    8.2306   23.6135 C.ar    1  lig        -0.0999
     13 C2          9.1097    8.0046   22.7120 C.ar    1  lig        -0.0999
     14 C3          6.4312    7.6460   22.4773 C.ar    1  lig        -0.1787
     15 C4          8.6243    7.4499   21.5433 C.ar    1  lig        -0.1787
     16 C5          8.2619    8.4184   23.7330 C.ar    1  lig        -0.1394
     17 C6          7.2480    7.2868   21.4381 C.ar    1  lig         0.1292
     18 C7         10.4307   10.7147   24.1047 C.2     1  lig         0.9321
     19 C8          8.8141    9.0443   24.9996 C.3     1  lig        -0.0452
     20 C9          9.1645   10.5300   24.9092 C.3     1  lig        -0.0740
     21 N1          8.0295   11.2177   24.2948 N.4     1  lig        -0.8252
     22 O1         11.4639   10.4173   24.7003 O.co2   1  lig        -0.7573
     23 O2         10.4464   11.1683   22.9246 O.co2   1  lig        -0.7573
     24 O3          6.7227    6.7328   20.4190 O.3     1  lig        -0.4913
@<TRIPOS>BOND
     1     1    12    1
     2     2    13    1
     3     3    14    1
     4     4    15    1
     5     5    19    1
     6     6    19    1
     7     7    20    1
     8     8    21    1
     9     9    21    1
    10    10    21    1
    11    11    24    1
    12    12    14   ar
    13    12    16   ar
    14    13    15   ar
    15    13    16   ar
    16    14    17   ar
    17    15    17   ar
    18    16    19    1
    19    17    24    1
    20    18    20    1
    21    18    22    1
    22    18    23    1
    23    19    20    1
    24    20    21    1
@<TRIPOS>SUBSTRUCTURE
     1 lig         1 TEMP              0 ****  ****    0 ROOT


########## Name:		ligand
########## HA_RMSDs:		10.9483
########## HA_RMSDh:		10.9483
########## HA_RMSDm:		9.3403
########## Cluster Size:	1
##########    Grid Score:          -15.417091
##########      Grid_vdw:          -16.497623
##########       Grid_es:            1.080532
##########    Int_energy:            2.450811

@<TRIPOS>MOLECULE
ligand
 24 24 1 0 0
SMALL
No Charge or Current Charge


@<TRIPOS>ATOM
      1 H1         17.3820   16.4430   29.9285 H       1  lig         0.1340
      2 H2         14.6750   17.0218   26.6799 H       1  lig         0.1340
      3 H3         15.9352   17.8168   31.3314 H       1  lig         0.1475
      4 H4         13.2350   18.4512   28.0772 H       1  lig         0.1475
      5 H5         17.0950   16.2808   26.3577 H       1  lig         0.0877
      6 H6         18.0453   15.7816   27.7209 H       1  lig         0.0877
      7 H7         15.5108   14.3334   26.7992 H       1  lig         0.0966
      8 H8         16.0764   14.0885   29.1671 H       1  lig         0.4431
      9 H9         16.4078   12.6608   28.3893 H       1  lig         0.4431
     10 H10        17.6513   13.7001   28.7740 H       1  lig         0.4431
     11 H11        12.9234   19.0748   30.1668 H       1  lig         0.4214
     12 C1         16.4803   16.8819   29.5090 C.ar    1  lig        -0.0999
     13 C2         14.9534   17.2118   27.7138 C.ar    1  lig        -0.0999
     14 C3         15.6643   17.6482   30.2950 C.ar    1  lig        -0.1787
     15 C4         14.1428   18.0203   28.4875 C.ar    1  lig        -0.1787
     16 C5         16.1309   16.6655   28.2113 C.ar    1  lig        -0.1394
     17 C6         14.5319   18.2415   29.8034 C.ar    1  lig         0.1292
     18 C7         17.3805   13.6841   26.0714 C.2     1  lig         0.9321
     19 C8         17.0175   15.7975   27.3386 C.3     1  lig        -0.0452
     20 C9         16.5474   14.3563   27.1386 C.3     1  lig        -0.0740
     21 N1         16.6609   13.6692   28.4245 N.4     1  lig        -0.8252
     22 O1         18.5513   14.0550   26.0263 O.co2   1  lig        -0.7573
     23 O2         16.9178   12.8309   25.2609 O.co2   1  lig        -0.7573
     24 O3         13.8136   18.9277   30.6000 O.3     1  lig        -0.4913
@<TRIPOS>BOND
     1     1    12    1
     2     2    13    1
     3     3    14    1
     4     4    15    1
     5     5    19    1
     6     6    19    1
     7     7    20    1
     8     8    21    1
     9     9    21    1
    10    10    21    1
    11    11    24    1
    12    12    14   ar
    13    12    16   ar
    14    13    15   ar
    15    13    16   ar
    16    14    17   ar
    17    15    17   ar
    18    16    19    1
    19    17    24    1
    20    18    20    1
    21    18    22    1
    22    18    23    1
    23    19    20    1
    24    20    21    1
@<TRIPOS>SUBSTRUCTURE
     1 lig         1 TEMP              0 ****  ****    0 ROOT


########## Name:		ligand
########## HA_RMSDs:		12.4539
########## HA_RMSDh:		12.4063
########## HA_RMSDm:		10.2275
########## Cluster Size:	1
##########    Grid Score:          -15.408343
##########      Grid_vdw:          -14.595905
##########       Grid_es:           -0.812438
##########    Int_energy:            2.735918

@<TRIPOS>MOLECULE
ligand
 24 24 1 0 0
SMALL
No Charge or Current Charge


@<TRIPOS>ATOM
      1 H1         16.5689   14.8290   29.7528 H       1  lig         0.1340
      2 H2         13.5013   17.7293   29.1253 H       1  lig         0.1340
      3 H3         16.5105   15.3363   32.1378 H       1  lig         0.1475
      4 H4         13.4723   18.2822   31.5259 H       1  lig         0.1475
      5 H5         15.3677   14.8886   27.6981 H       1  lig         0.0877
      6 H6         14.0640   15.9894   27.3828 H       1  lig         0.0877
      7 H7         15.7027   17.8451   26.9818 H       1  lig         0.0966
      8 H8         14.9807   16.3696   25.1684 H       1  lig         0.4431
      9 H9         16.5648   16.7923   24.9133 H       1  lig         0.4431
     10 H10        16.2000   15.2893   25.5317 H       1  lig         0.4431
     11 H11        15.7629   16.4733   33.6338 H       1  lig         0.4214
     12 C1         15.8907   15.5917   30.1270 C.ar    1  lig        -0.0999
     13 C2         14.1750   17.2081   29.8014 C.ar    1  lig        -0.0999
     14 C3         15.8520   15.8743   31.4647 C.ar    1  lig        -0.1787
     15 C4         14.1558   17.5300   31.1451 C.ar    1  lig        -0.1787
     16 C5         15.0555   16.2631   29.2877 C.ar    1  lig        -0.1394
     17 C6         15.0320   16.8440   31.9779 C.ar    1  lig         0.1292
     18 C7         17.4167   16.7263   27.4893 C.2     1  lig         0.9321
     19 C8         15.0747   15.9395   27.8058 C.3     1  lig        -0.0452
     20 C9         16.0065   16.7978   26.9497 C.3     1  lig        -0.0740
     21 N1         15.9287   16.3034   25.5756 N.4     1  lig        -0.8252
     22 O1         17.6878   17.5818   28.3290 O.co2   1  lig        -0.7573
     23 O2         18.2712   15.8815   27.0956 O.co2   1  lig        -0.7573
     24 O3         15.0396   17.0394   33.2361 O.3     1  lig        -0.4913
@<TRIPOS>BOND
     1     1    12    1
     2     2    13    1
     3     3    14    1
     4     4    15    1
     5     5    19    1
     6     6    19    1
     7     7    20    1
     8     8    21    1
     9     9    21    1
    10    10    21    1
    11    11    24    1
    12    12    14   ar
    13    12    16   ar
    14    13    15   ar
    15    13    16   ar
    16    14    17   ar
    17    15    17   ar
    18    16    19    1
    19    17    24    1
    20    18    20    1
    21    18    22    1
    22    18    23    1
    23    19    20    1
    24    20    21    1
@<TRIPOS>SUBSTRUCTURE
     1 lig         1 TEMP              0 ****  ****    0 ROOT


########## Name:		ligand
########## HA_RMSDs:		11.2961
########## HA_RMSDh:		11.2555
########## HA_RMSDm:		9.2701
########## Cluster Size:	1
##########    Grid Score:          -15.388820
##########      Grid_vdw:          -13.397797
##########       Grid_es:           -1.991023
##########    Int_energy:            1.021578

@<TRIPOS>MOLECULE
ligand
 24 24 1 0 0
SMALL
No Charge or Current Charge


@<TRIPOS>ATOM
      1 H1         12.4895   12.9690   27.4972 H       1  lig         0.1340
      2 H2         13.6813   11.8249   23.5620 H       1  lig         0.1340
      3 H3         10.1638   12.9373   26.7630 H       1  lig         0.1475
      4 H4         11.3384   11.8395   22.8008 H       1  lig         0.1475
      5 H5         14.7227   11.9141   26.9959 H       1  lig         0.0877
      6 H6         15.2963   11.8051   25.3619 H       1  lig         0.0877
      7 H7         14.6017   14.5896   25.9876 H       1  lig         0.0966
      8 H8         16.0651   13.7930   24.1957 H       1  lig         0.4431
      9 H9         16.9449   14.7695   25.2082 H       1  lig         0.4431
     10 H10        17.1023   13.1146   25.3136 H       1  lig         0.4431
     11 H11         9.1589   11.5112   24.0539 H       1  lig         0.4214
     12 C1         12.2516   12.7262   26.4647 C.ar    1  lig        -0.0999
     13 C2         12.8929   12.0809   24.2658 C.ar    1  lig        -0.0999
     14 C3         10.9480   12.7023   26.0516 C.ar    1  lig        -0.1787
     15 C4         11.5825   12.0928   23.8276 C.ar    1  lig        -0.1787
     16 C5         13.2315   12.4214   25.5704 C.ar    1  lig        -0.1394
     17 C6         10.6026   12.4264   24.7552 C.ar    1  lig         0.1292
     18 C7         15.8592   13.9818   27.5675 C.2     1  lig         0.9321
     19 C8         14.6785   12.4222   26.0255 C.3     1  lig        -0.0452
     20 C9         15.3316   13.7979   26.1631 C.3     1  lig        -0.0740
     21 N1         16.4010   13.8836   25.1693 N.4     1  lig        -0.8252
     22 O1         15.0636   14.4967   28.3502 O.co2   1  lig        -0.7573
     23 O2         17.0326   13.6669   27.9177 O.co2   1  lig        -0.7573
     24 O3          9.3668   12.4069   24.4491 O.3     1  lig        -0.4913
@<TRIPOS>BOND
     1     1    12    1
     2     2    13    1
     3     3    14    1
     4     4    15    1
     5     5    19    1
     6     6    19    1
     7     7    20    1
     8     8    21    1
     9     9    21    1
    10    10    21    1
    11    11    24    1
    12    12    14   ar
    13    12    16   ar
    14    13    15   ar
    15    13    16   ar
    16    14    17   ar
    17    15    17   ar
    18    16    19    1
    19    17    24    1
    20    18    20    1
    21    18    22    1
    22    18    23    1
    23    19    20    1
    24    20    21    1
@<TRIPOS>SUBSTRUCTURE
     1 lig         1 TEMP              0 ****  ****    0 ROOT


########## Name:		ligand
########## HA_RMSDs:		11.3570
########## HA_RMSDh:		11.2506
########## HA_RMSDm:		7.5002
########## Cluster Size:	1
##########    Grid Score:          -15.326113
##########      Grid_vdw:          -13.596124
##########       Grid_es:           -1.729989
##########    Int_energy:            3.211503

@<TRIPOS>MOLECULE
ligand
 24 24 1 0 0
SMALL
No Charge or Current Charge


@<TRIPOS>ATOM
      1 H1         16.1245   15.8259   26.1300 H       1  lig         0.1340
      2 H2         14.4404   11.9893   26.9425 H       1  lig         0.1340
      3 H3         16.5013   15.1317   23.8224 H       1  lig         0.1475
      4 H4         14.8637   11.2644   24.6264 H       1  lig         0.1475
      5 H5         15.1395   13.4923   28.7566 H       1  lig         0.0877
      6 H6         15.8075   15.0660   28.4602 H       1  lig         0.0877
      7 H7         13.3284   15.5901   27.5303 H       1  lig         0.0966
      8 H8         14.4769   16.6489   29.4136 H       1  lig         0.4431
      9 H9         12.9106   16.3276   29.8566 H       1  lig         0.4431
     10 H10        14.1393   15.3358   30.3870 H       1  lig         0.4431
     11 H11        16.2798   13.7114   22.4013 H       1  lig         0.4214
     12 C1         15.8496   14.8223   25.8154 C.ar    1  lig        -0.0999
     13 C2         14.9078   12.6794   26.2440 C.ar    1  lig        -0.0999
     14 C3         16.0547   14.4322   24.5206 C.ar    1  lig        -0.1787
     15 C4         15.1471   12.2612   24.9490 C.ar    1  lig        -0.1787
     16 C5         15.2802   13.9439   26.6855 C.ar    1  lig        -0.1394
     17 C6         15.7473   13.1703   24.0857 C.ar    1  lig         0.1292
     18 C7         12.6297   13.9269   28.6224 C.2     1  lig         0.9321
     19 C8         15.0272   14.3758   28.1174 C.3     1  lig        -0.0452
     20 C9         13.6614   15.0069   28.3902 C.3     1  lig        -0.0740
     21 N1         13.8000   15.8803   29.5549 N.4     1  lig        -0.8252
     22 O1         12.9546   13.0775   29.4492 O.co2   1  lig        -0.7573
     23 O2         11.5301   13.8687   28.0010 O.co2   1  lig        -0.7573
     24 O3         15.9519   12.8854   22.8617 O.3     1  lig        -0.4913
@<TRIPOS>BOND
     1     1    12    1
     2     2    13    1
     3     3    14    1
     4     4    15    1
     5     5    19    1
     6     6    19    1
     7     7    20    1
     8     8    21    1
     9     9    21    1
    10    10    21    1
    11    11    24    1
    12    12    14   ar
    13    12    16   ar
    14    13    15   ar
    15    13    16   ar
    16    14    17   ar
    17    15    17   ar
    18    16    19    1
    19    17    24    1
    20    18    20    1
    21    18    22    1
    22    18    23    1
    23    19    20    1
    24    20    21    1
@<TRIPOS>SUBSTRUCTURE
     1 lig         1 TEMP              0 ****  ****    0 ROOT


########## Name:		ligand
########## HA_RMSDs:		11.2255
########## HA_RMSDh:		11.1815
########## HA_RMSDm:		9.4592
########## Cluster Size:	1
##########    Grid Score:          -15.295933
##########      Grid_vdw:          -17.750874
##########       Grid_es:            2.454941
##########    Int_energy:            1.384963

@<TRIPOS>MOLECULE
ligand
 24 24 1 0 0
SMALL
No Charge or Current Charge


@<TRIPOS>ATOM
      1 H1         16.6581   14.7079   29.8006 H       1  lig         0.1340
      2 H2         14.0331   17.4097   27.7943 H       1  lig         0.1340
      3 H3         16.5718   16.1437   31.7703 H       1  lig         0.1475
      4 H4         13.9812   18.8900   29.7627 H       1  lig         0.1475
      5 H5         15.5183   14.0495   27.7942 H       1  lig         0.0877
      6 H6         14.4402   15.0946   26.9246 H       1  lig         0.0877
      7 H7         17.4786   15.4602   26.9317 H       1  lig         0.0966
      8 H8         16.1399   17.4477   26.4368 H       1  lig         0.4431
      9 H9         16.8574   16.9254   25.0349 H       1  lig         0.4431
     10 H10        15.2486   16.5950   25.3124 H       1  lig         0.4431
     11 H11        15.8604   17.8197   32.6419 H       1  lig         0.4214
     12 C1         16.0732   15.6239   29.7769 C.ar    1  lig        -0.0999
     13 C2         14.6032   17.1402   28.6802 C.ar    1  lig        -0.0999
     14 C3         16.0187   16.4281   30.8819 C.ar    1  lig        -0.1787
     15 C4         14.5730   17.9803   29.7768 C.ar    1  lig        -0.1787
     16 C5         15.3698   15.9805   28.6675 C.ar    1  lig        -0.1394
     17 C6         15.3154   17.6035   30.8897 C.ar    1  lig         0.1292
     18 C7         16.6167   14.2517   25.4339 C.2     1  lig         0.9321
     19 C8         15.4054   15.0827   27.4454 C.3     1  lig        -0.0452
     20 C9         16.5115   15.3811   26.4329 C.3     1  lig        -0.0740
     21 N1         16.1873   16.6496   25.7813 N.4     1  lig        -0.8252
     22 O1         17.4339   13.3820   25.7281 O.co2   1  lig        -0.7573
     23 O2         15.9490   14.2061   24.3610 O.co2   1  lig        -0.7573
     24 O3         15.2983   18.2913   31.9612 O.3     1  lig        -0.4913
@<TRIPOS>BOND
     1     1    12    1
     2     2    13    1
     3     3    14    1
     4     4    15    1
     5     5    19    1
     6     6    19    1
     7     7    20    1
     8     8    21    1
     9     9    21    1
    10    10    21    1
    11    11    24    1
    12    12    14   ar
    13    12    16   ar
    14    13    15   ar
    15    13    16   ar
    16    14    17   ar
    17    15    17   ar
    18    16    19    1
    19    17    24    1
    20    18    20    1
    21    18    22    1
    22    18    23    1
    23    19    20    1
    24    20    21    1
@<TRIPOS>SUBSTRUCTURE
     1 lig         1 TEMP              0 ****  ****    0 ROOT


########## Name:		ligand
########## HA_RMSDs:		14.6063
########## HA_RMSDh:		14.5145
########## HA_RMSDm:		12.4112
########## Cluster Size:	1
##########    Grid Score:          -15.233582
##########      Grid_vdw:          -14.490216
##########       Grid_es:           -0.743365
##########    Int_energy:            2.378102

@<TRIPOS>MOLECULE
ligand
 24 24 1 0 0
SMALL
No Charge or Current Charge


@<TRIPOS>ATOM
      1 H1          8.3204    8.9774   20.4728 H       1  lig         0.1340
      2 H2          7.4651    8.0805   24.5569 H       1  lig         0.1340
      3 H3          6.9364    7.0834   19.8047 H       1  lig         0.1475
      4 H4          6.1065    6.1363   23.8910 H       1  lig         0.1475
      5 H5          9.4504   10.1193   22.1154 H       1  lig         0.0877
      6 H6          8.2123   10.6930   23.1871 H       1  lig         0.0877
      7 H7          9.5960    8.6012   24.6056 H       1  lig         0.0966
      8 H8          8.5078   10.5953   25.5147 H       1  lig         0.4431
      9 H9         10.0925   10.5817   26.0061 H       1  lig         0.4431
     10 H10         9.6237   11.5776   24.7560 H       1  lig         0.4431
     11 H11         5.9615    5.3701   20.3929 H       1  lig         0.4214
     12 C1          7.8464    8.3597   21.2314 C.ar    1  lig        -0.0999
     13 C2          7.3502    7.8457   23.5013 C.ar    1  lig        -0.0999
     14 C3          7.0654    7.3003   20.8595 C.ar    1  lig        -0.1787
     15 C4          6.5917    6.7493   23.1382 C.ar    1  lig        -0.1787
     16 C5          7.9975    8.6333   22.5562 C.ar    1  lig        -0.1394
     17 C6          6.4691    6.4799   21.7801 C.ar    1  lig         0.1292
     18 C7         11.2115    9.6306   23.7238 C.2     1  lig         0.9321
     19 C8          8.8427    9.8204   22.9775 C.3     1  lig        -0.0452
     20 C9          9.7685    9.5873   24.1718 C.3     1  lig        -0.0740
     21 N1          9.4807   10.6207   25.1657 N.4     1  lig        -0.8252
     22 O1         11.4865    8.8597   22.8070 O.co2   1  lig        -0.7573
     23 O2         12.0855   10.3706   24.2599 O.co2   1  lig        -0.7573
     24 O3          5.7432    5.5229   21.3576 O.3     1  lig        -0.4913
@<TRIPOS>BOND
     1     1    12    1
     2     2    13    1
     3     3    14    1
     4     4    15    1
     5     5    19    1
     6     6    19    1
     7     7    20    1
     8     8    21    1
     9     9    21    1
    10    10    21    1
    11    11    24    1
    12    12    14   ar
    13    12    16   ar
    14    13    15   ar
    15    13    16   ar
    16    14    17   ar
    17    15    17   ar
    18    16    19    1
    19    17    24    1
    20    18    20    1
    21    18    22    1
    22    18    23    1
    23    19    20    1
    24    20    21    1
@<TRIPOS>SUBSTRUCTURE
     1 lig         1 TEMP              0 ****  ****    0 ROOT


########## Name:		ligand
########## HA_RMSDs:		12.5499
########## HA_RMSDh:		12.5055
########## HA_RMSDm:		10.6647
########## Cluster Size:	1
##########    Grid Score:          -15.182825
##########      Grid_vdw:          -14.369669
##########       Grid_es:           -0.813156
##########    Int_energy:            1.047505

@<TRIPOS>MOLECULE
ligand
 24 24 1 0 0
SMALL
No Charge or Current Charge


@<TRIPOS>ATOM
      1 H1         17.6310   16.7877   30.3640 H       1  lig         0.1340
      2 H2         13.5019   17.1316   29.3403 H       1  lig         0.1340
      3 H3         17.0140   16.8484   32.7229 H       1  lig         0.1475
      4 H4         12.8760   17.2438   31.7204 H       1  lig         0.1475
      5 H5         15.1165   17.2630   27.6582 H       1  lig         0.0877
      6 H6         16.7707   17.6525   28.0083 H       1  lig         0.0877
      7 H7         16.4999   14.8375   28.5303 H       1  lig         0.0966
      8 H8         18.4562   16.0547   27.7069 H       1  lig         0.4431
      9 H9         18.0867   14.8481   26.6297 H       1  lig         0.4431
     10 H10        17.6588   16.4210   26.2871 H       1  lig         0.4431
     11 H11        13.6975   17.1563   33.7401 H       1  lig         0.4214
     12 C1         16.5869   16.8942   30.6473 C.ar    1  lig        -0.0999
     13 C2         14.2785   17.0791   30.0997 C.ar    1  lig        -0.0999
     14 C3         16.2376   16.9230   31.9694 C.ar    1  lig        -0.1787
     15 C4         13.9181   17.1495   31.4318 C.ar    1  lig        -0.1787
     16 C5         15.6078   16.9787   29.7055 C.ar    1  lig        -0.1394
     17 C6         14.9383   17.0807   32.3732 C.ar    1  lig         0.1292
     18 C7         15.3807   15.0169   26.7520 C.2     1  lig         0.9321
     19 C8         15.9836   16.9237   28.2369 C.3     1  lig        -0.0452
     20 C9         16.4170   15.5545   27.7121 C.3     1  lig        -0.0740
     21 N1         17.7185   15.7179   27.0656 N.4     1  lig        -0.8252
     22 O1         14.4984   14.3409   27.2765 O.co2   1  lig        -0.7573
     23 O2         15.4214   15.2103   25.5031 O.co2   1  lig        -0.7573
     24 O3         14.6885   17.0820   33.6218 O.3     1  lig        -0.4913
@<TRIPOS>BOND
     1     1    12    1
     2     2    13    1
     3     3    14    1
     4     4    15    1
     5     5    19    1
     6     6    19    1
     7     7    20    1
     8     8    21    1
     9     9    21    1
    10    10    21    1
    11    11    24    1
    12    12    14   ar
    13    12    16   ar
    14    13    15   ar
    15    13    16   ar
    16    14    17   ar
    17    15    17   ar
    18    16    19    1
    19    17    24    1
    20    18    20    1
    21    18    22    1
    22    18    23    1
    23    19    20    1
    24    20    21    1
@<TRIPOS>SUBSTRUCTURE
     1 lig         1 TEMP              0 ****  ****    0 ROOT


########## Name:		ligand
########## HA_RMSDs:		16.0201
########## HA_RMSDh:		15.9392
########## HA_RMSDm:		13.7207
########## Cluster Size:	1
##########    Grid Score:          -15.182673
##########      Grid_vdw:          -15.331805
##########       Grid_es:            0.149133
##########    Int_energy:            1.386493

@<TRIPOS>MOLECULE
ligand
 24 24 1 0 0
SMALL
No Charge or Current Charge


@<TRIPOS>ATOM
      1 H1          7.7780    7.9563   21.0690 H       1  lig         0.1340
      2 H2          5.4413    7.4881   24.6096 H       1  lig         0.1340
      3 H3          6.9221    5.8186   20.2649 H       1  lig         0.1475
      4 H4          4.6116    5.3048   23.8260 H       1  lig         0.1475
      5 H5          7.5517    9.7463   22.5265 H       1  lig         0.0877
      6 H6          6.3777    9.7877   23.8035 H       1  lig         0.0877
      7 H7          8.9097    8.2092   24.3035 H       1  lig         0.0966
      8 H8          7.0792    8.3161   25.9236 H       1  lig         0.4431
      9 H9          8.3867    9.1293   26.5418 H       1  lig         0.4431
     10 H10         7.1154    9.9845   25.8883 H       1  lig         0.4431
     11 H11         4.9694    3.7656   22.2405 H       1  lig         0.4214
     12 C1          7.0902    7.3828   21.6852 C.ar    1  lig        -0.0999
     13 C2          5.7736    7.1045   23.6478 C.ar    1  lig        -0.0999
     14 C3          6.6044    6.1864   21.2344 C.ar    1  lig        -0.1787
     15 C4          5.3078    5.8760   23.2201 C.ar    1  lig        -0.1787
     16 C5          6.6811    7.8445   22.8986 C.ar    1  lig        -0.1394
     17 C6          5.7558    5.4181   21.9866 C.ar    1  lig         0.1292
     18 C7          9.2588   10.2882   24.2479 C.2     1  lig         0.9321
     19 C8          7.1961    9.1817   23.3963 C.3     1  lig        -0.0452
     20 C9          8.3197    9.1180   24.4314 C.3     1  lig        -0.0740
     21 N1          7.7033    9.1235   25.7575 N.4     1  lig        -0.8252
     22 O1          8.7528   11.3887   24.4564 O.co2   1  lig        -0.7573
     23 O2         10.4617   10.1647   23.8783 O.co2   1  lig        -0.7573
     24 O3          5.3328    4.3232   21.4931 O.3     1  lig        -0.4913
@<TRIPOS>BOND
     1     1    12    1
     2     2    13    1
     3     3    14    1
     4     4    15    1
     5     5    19    1
     6     6    19    1
     7     7    20    1
     8     8    21    1
     9     9    21    1
    10    10    21    1
    11    11    24    1
    12    12    14   ar
    13    12    16   ar
    14    13    15   ar
    15    13    16   ar
    16    14    17   ar
    17    15    17   ar
    18    16    19    1
    19    17    24    1
    20    18    20    1
    21    18    22    1
    22    18    23    1
    23    19    20    1
    24    20    21    1
@<TRIPOS>SUBSTRUCTURE
     1 lig         1 TEMP              0 ****  ****    0 ROOT


########## Name:		ligand
########## HA_RMSDs:		10.9587
########## HA_RMSDh:		10.9113
########## HA_RMSDm:		8.6345
########## Cluster Size:	1
##########    Grid Score:          -15.177710
##########      Grid_vdw:          -14.584054
##########       Grid_es:           -0.593655
##########    Int_energy:            2.998430

@<TRIPOS>MOLECULE
ligand
 24 24 1 0 0
SMALL
No Charge or Current Charge


@<TRIPOS>ATOM
      1 H1         17.5909   16.8925   27.0010 H       1  lig         0.1340
      2 H2         15.0398   14.5502   29.4953 H       1  lig         0.1340
      3 H3         16.5371   18.9094   27.8788 H       1  lig         0.1475
      4 H4         13.9370   16.5810   30.3490 H       1  lig         0.1475
      5 H5         18.0601   14.5946   27.3751 H       1  lig         0.0877
      6 H6         17.1315   13.5879   28.4403 H       1  lig         0.0877
      7 H7         16.9503   12.8531   26.0681 H       1  lig         0.0966
      8 H8         17.1304   15.0848   25.0814 H       1  lig         0.4431
      9 H9         15.7294   14.3760   24.5449 H       1  lig         0.4431
     10 H10        15.6657   15.5235   25.7506 H       1  lig         0.4431
     11 H11        15.1288   19.7301   29.0723 H       1  lig         0.4214
     12 C1         16.7878   16.8100   27.7289 C.ar    1  lig        -0.0999
     13 C2         15.3605   15.5243   29.1333 C.ar    1  lig        -0.0999
     14 C3         16.1988   17.9396   28.2269 C.ar    1  lig        -0.1787
     15 C4         14.7312   16.6570   29.6132 C.ar    1  lig        -0.1787
     16 C5         16.3659   15.5955   28.1760 C.ar    1  lig        -0.1394
     17 C6         15.1672   17.8836   29.1263 C.ar    1  lig         0.1292
     18 C7         15.0080   13.1252   26.8429 C.2     1  lig         0.9321
     19 C8         17.0294   14.3383   27.6470 C.3     1  lig        -0.0452
     20 C9         16.3527   13.6863   26.4408 C.3     1  lig        -0.0740
     21 N1         16.2230   14.7049   25.3995 N.4     1  lig        -0.8252
     22 O1         15.0431   11.9802   27.2881 O.co2   1  lig        -0.7573
     23 O2         13.9211   13.7572   26.7084 O.co2   1  lig        -0.7573
     24 O3         14.6800   18.9783   29.5572 O.3     1  lig        -0.4913
@<TRIPOS>BOND
     1     1    12    1
     2     2    13    1
     3     3    14    1
     4     4    15    1
     5     5    19    1
     6     6    19    1
     7     7    20    1
     8     8    21    1
     9     9    21    1
    10    10    21    1
    11    11    24    1
    12    12    14   ar
    13    12    16   ar
    14    13    15   ar
    15    13    16   ar
    16    14    17   ar
    17    15    17   ar
    18    16    19    1
    19    17    24    1
    20    18    20    1
    21    18    22    1
    22    18    23    1
    23    19    20    1
    24    20    21    1
@<TRIPOS>SUBSTRUCTURE
     1 lig         1 TEMP              0 ****  ****    0 ROOT


########## Name:		ligand
########## HA_RMSDs:		14.5872
########## HA_RMSDh:		14.5658
########## HA_RMSDm:		12.4051
########## Cluster Size:	1
##########    Grid Score:          -15.151314
##########      Grid_vdw:          -14.837846
##########       Grid_es:           -0.313468
##########    Int_energy:            1.647159

@<TRIPOS>MOLECULE
ligand
 24 24 1 0 0
SMALL
No Charge or Current Charge


@<TRIPOS>ATOM
      1 H1         21.8317    4.8042   13.0204 H       1  lig         0.1340
      2 H2         25.9763    5.7695   12.6953 H       1  lig         0.1340
      3 H3         21.2857    7.0994   12.4018 H       1  lig         0.1475
      4 H4         25.4328    8.1021   12.1187 H       1  lig         0.1475
      5 H5         23.3887    3.1071   13.1193 H       1  lig         0.0877
      6 H6         25.0305    3.3094   12.5957 H       1  lig         0.0877
      7 H7         25.4943    4.2617   15.0012 H       1  lig         0.0966
      8 H8         26.2084    2.0798   14.1548 H       1  lig         0.4431
      9 H9         25.7158    1.9058   15.7297 H       1  lig         0.4431
     10 H10        24.7071    1.4328   14.4914 H       1  lig         0.4431
     11 H11        21.9579    9.0056   12.0961 H       1  lig         0.4214
     12 C1         22.6297    5.5179   12.8317 C.ar    1  lig        -0.0999
     13 C2         24.9347    6.0763   12.6373 C.ar    1  lig        -0.0999
     14 C3         22.3264    6.8041   12.4793 C.ar    1  lig        -0.1787
     15 C4         24.6401    7.3885   12.3197 C.ar    1  lig        -0.1787
     16 C5         23.9373    5.1497   12.9186 C.ar    1  lig        -0.1394
     17 C6         23.2979    7.7437   12.2567 C.ar    1  lig         0.1292
     18 C7         23.6064    3.6128   15.6805 C.2     1  lig         0.9321
     19 C8         24.2830    3.7191   13.2856 C.3     1  lig        -0.0452
     20 C9         24.7673    3.4988   14.7191 C.3     1  lig        -0.0740
     21 N1         25.3904    2.1772   14.7796 N.4     1  lig        -0.8252
     22 O1         23.4115    4.7453   16.1162 O.co2   1  lig        -0.7573
     23 O2         22.9028    2.6267   16.0431 O.co2   1  lig        -0.7573
     24 O3         22.9385    8.9169   11.9164 O.3     1  lig        -0.4913
@<TRIPOS>BOND
     1     1    12    1
     2     2    13    1
     3     3    14    1
     4     4    15    1
     5     5    19    1
     6     6    19    1
     7     7    20    1
     8     8    21    1
     9     9    21    1
    10    10    21    1
    11    11    24    1
    12    12    14   ar
    13    12    16   ar
    14    13    15   ar
    15    13    16   ar
    16    14    17   ar
    17    15    17   ar
    18    16    19    1
    19    17    24    1
    20    18    20    1
    21    18    22    1
    22    18    23    1
    23    19    20    1
    24    20    21    1
@<TRIPOS>SUBSTRUCTURE
     1 lig         1 TEMP              0 ****  ****    0 ROOT


########## Name:		ligand
########## HA_RMSDs:		14.5677
########## HA_RMSDh:		14.5142
########## HA_RMSDm:		12.7751
########## Cluster Size:	1
##########    Grid Score:          -15.140546
##########      Grid_vdw:          -14.712654
##########       Grid_es:           -0.427892
##########    Int_energy:            1.769209

@<TRIPOS>MOLECULE
ligand
 24 24 1 0 0
SMALL
No Charge or Current Charge


@<TRIPOS>ATOM
      1 H1          7.5067    8.6643   26.8744 H       1  lig         0.1340
      2 H2          8.5131   10.5611   23.1859 H       1  lig         0.1340
      3 H3          6.1511    7.0581   25.6368 H       1  lig         0.1475
      4 H4          7.1059    8.9727   21.9346 H       1  lig         0.1475
      5 H5          8.4225   11.6863   25.8522 H       1  lig         0.0877
      6 H6          8.9842   10.4531   26.9359 H       1  lig         0.0877
      7 H7         10.5306   10.2798   24.4703 H       1  lig         0.0966
      8 H8         11.1817    9.5326   26.7074 H       1  lig         0.4431
      9 H9         12.2837   10.6543   26.1780 H       1  lig         0.4431
     10 H10        11.1129   11.1004   27.2757 H       1  lig         0.4431
     11 H11         4.8633    7.1314   23.4785 H       1  lig         0.4214
     12 C1          7.4224    8.7469   25.7938 C.ar    1  lig        -0.0999
     13 C2          7.9761    9.7841   23.7249 C.ar    1  lig        -0.0999
     14 C3          6.6673    7.8443   25.0967 C.ar    1  lig        -0.1787
     15 C4          7.1841    8.9022   23.0148 C.ar    1  lig        -0.1787
     16 C5          8.0758    9.7260   25.1103 C.ar    1  lig        -0.1394
     17 C6          6.5120    7.9240   23.7382 C.ar    1  lig         0.1292
     18 C7         10.5675   12.3395   24.9210 C.2     1  lig         0.9321
     19 C8          8.9345   10.7171   25.8725 C.3     1  lig        -0.0452
     20 C9         10.3585   10.9047   25.3479 C.3     1  lig        -0.0740
     21 N1         11.2801   10.5197   26.4161 N.4     1  lig        -0.8252
     22 O1         11.4133   12.9495   25.5715 O.co2   1  lig        -0.7573
     23 O2          9.9106   12.8930   23.9931 O.co2   1  lig        -0.7573
     24 O3          5.8064    7.0378   23.1567 O.3     1  lig        -0.4913
@<TRIPOS>BOND
     1     1    12    1
     2     2    13    1
     3     3    14    1
     4     4    15    1
     5     5    19    1
     6     6    19    1
     7     7    20    1
     8     8    21    1
     9     9    21    1
    10    10    21    1
    11    11    24    1
    12    12    14   ar
    13    12    16   ar
    14    13    15   ar
    15    13    16   ar
    16    14    17   ar
    17    15    17   ar
    18    16    19    1
    19    17    24    1
    20    18    20    1
    21    18    22    1
    22    18    23    1
    23    19    20    1
    24    20    21    1
@<TRIPOS>SUBSTRUCTURE
     1 lig         1 TEMP              0 ****  ****    0 ROOT


########## Name:		ligand
########## HA_RMSDs:		14.1264
########## HA_RMSDh:		14.0699
########## HA_RMSDm:		12.4445
########## Cluster Size:	1
##########    Grid Score:          -15.110193
##########      Grid_vdw:          -15.071825
##########       Grid_es:           -0.038368
##########    Int_energy:            4.258963

@<TRIPOS>MOLECULE
ligand
 24 24 1 0 0
SMALL
No Charge or Current Charge


@<TRIPOS>ATOM
      1 H1         22.1506    4.3089   12.9997 H       1  lig         0.1340
      2 H2         24.7984    6.4687   15.5569 H       1  lig         0.1340
      3 H3         22.2055    6.1734   11.4282 H       1  lig         0.1475
      4 H4         24.8189    8.3760   13.9978 H       1  lig         0.1475
      5 H5         22.7157    3.3813   14.9854 H       1  lig         0.0877
      6 H6         24.3983    3.5916   15.3533 H       1  lig         0.0877
      7 H7         22.4459    5.3540   16.8413 H       1  lig         0.0966
      8 H8         24.8697    5.5049   17.1403 H       1  lig         0.4431
      9 H9         24.1957    4.9160   18.5374 H       1  lig         0.4431
     10 H10        24.9518    3.8731   17.4814 H       1  lig         0.4431
     11 H11        22.5755    8.3168   11.2922 H       1  lig         0.4214
     12 C1         22.7338    5.1961   13.2333 C.ar    1  lig        -0.0999
     13 C2         24.2162    6.4151   14.6401 C.ar    1  lig        -0.0999
     14 C3         22.7707    6.2408   12.3513 C.ar    1  lig        -0.1787
     15 C4         24.2288    7.4927   13.7752 C.ar    1  lig        -0.1787
     16 C5         23.4524    5.2817   14.3861 C.ar    1  lig        -0.1394
     17 C6         23.4713    7.3880   12.6145 C.ar    1  lig         0.1292
     18 C7         22.2902    3.3342   17.4271 C.2     1  lig         0.9321
     19 C8         23.4362    4.1182   15.3592 C.3     1  lig        -0.0452
     20 C9         23.0769    4.4648   16.8044 C.3     1  lig        -0.0740
     21 N1         24.3247    4.7150   17.5249 N.4     1  lig        -0.8252
     22 O1         22.5580    2.2193   16.9846 O.co2   1  lig        -0.7573
     23 O2         21.4015    3.5074   18.3097 O.co2   1  lig        -0.7573
     24 O3         23.4716    8.3115   11.7379 O.3     1  lig        -0.4913
@<TRIPOS>BOND
     1     1    12    1
     2     2    13    1
     3     3    14    1
     4     4    15    1
     5     5    19    1
     6     6    19    1
     7     7    20    1
     8     8    21    1
     9     9    21    1
    10    10    21    1
    11    11    24    1
    12    12    14   ar
    13    12    16   ar
    14    13    15   ar
    15    13    16   ar
    16    14    17   ar
    17    15    17   ar
    18    16    19    1
    19    17    24    1
    20    18    20    1
    21    18    22    1
    22    18    23    1
    23    19    20    1
    24    20    21    1
@<TRIPOS>SUBSTRUCTURE
     1 lig         1 TEMP              0 ****  ****    0 ROOT


########## Name:		ligand
########## HA_RMSDs:		17.3773
########## HA_RMSDh:		17.3556
########## HA_RMSDm:		15.3237
########## Cluster Size:	1
##########    Grid Score:          -15.106041
##########      Grid_vdw:          -13.761585
##########       Grid_es:           -1.344456
##########    Int_energy:            2.989076

@<TRIPOS>MOLECULE
ligand
 24 24 1 0 0
SMALL
No Charge or Current Charge


@<TRIPOS>ATOM
      1 H1          6.0169    8.4367   23.6497 H       1  lig         0.1340
      2 H2          5.4180    4.8838   21.3619 H       1  lig         0.1340
      3 H3          7.7516    9.1150   22.0750 H       1  lig         0.1475
      4 H4          7.2033    5.5389   19.7958 H       1  lig         0.1475
      5 H5          4.0308    7.0986   23.9325 H       1  lig         0.0877
      6 H6          3.7505    5.6226   23.0646 H       1  lig         0.0877
      7 H7          4.3451    5.5780   25.6557 H       1  lig         0.0966
      8 H8          6.4412    6.8035   25.3531 H       1  lig         0.4431
      9 H9          6.7901    5.2782   25.9051 H       1  lig         0.4431
     10 H10         6.9945    5.6399   24.2921 H       1  lig         0.4431
     11 H11         8.3004    8.7598   19.8599 H       1  lig         0.4214
     12 C1          6.2713    7.7900   22.8137 C.ar    1  lig        -0.0999
     13 C2          5.9492    5.8196   21.5190 C.ar    1  lig        -0.0999
     14 C3          7.2398    8.1705   21.9261 C.ar    1  lig        -0.1787
     15 C4          6.9534    6.1750   20.6389 C.ar    1  lig        -0.1787
     16 C5          5.6254    6.6081   22.6171 C.ar    1  lig        -0.1394
     17 C6          7.6108    7.3771   20.8729 C.ar    1  lig         0.1292
     18 C7          4.9144    3.9062   24.5034 C.2     1  lig         0.9321
     19 C8          4.5334    6.1891   23.5831 C.3     1  lig        -0.0452
     20 C9          4.9941    5.3861   24.8000 C.3     1  lig        -0.0740
     21 N1          6.3608    5.8007   25.1146 N.4     1  lig        -0.8252
     22 O1          5.9739    3.3981   24.1432 O.co2   1  lig        -0.7573
     23 O2          3.8448    3.2364   24.5829 O.co2   1  lig        -0.7573
     24 O3          8.5094    7.8060   20.0793 O.3     1  lig        -0.4913
@<TRIPOS>BOND
     1     1    12    1
     2     2    13    1
     3     3    14    1
     4     4    15    1
     5     5    19    1
     6     6    19    1
     7     7    20    1
     8     8    21    1
     9     9    21    1
    10    10    21    1
    11    11    24    1
    12    12    14   ar
    13    12    16   ar
    14    13    15   ar
    15    13    16   ar
    16    14    17   ar
    17    15    17   ar
    18    16    19    1
    19    17    24    1
    20    18    20    1
    21    18    22    1
    22    18    23    1
    23    19    20    1
    24    20    21    1
@<TRIPOS>SUBSTRUCTURE
     1 lig         1 TEMP              0 ****  ****    0 ROOT


########## Name:		ligand
########## HA_RMSDs:		12.3891
########## HA_RMSDh:		12.3772
########## HA_RMSDm:		10.3649
########## Cluster Size:	1
##########    Grid Score:          -15.096492
##########      Grid_vdw:          -10.551281
##########       Grid_es:           -4.545211
##########    Int_energy:            3.991928

@<TRIPOS>MOLECULE
ligand
 24 24 1 0 0
SMALL
No Charge or Current Charge


@<TRIPOS>ATOM
      1 H1         24.7933   14.4487   27.8390 H       1  lig         0.1340
      2 H2         21.1661   12.2022   27.7283 H       1  lig         0.1340
      3 H3         24.5882   14.5918   30.2651 H       1  lig         0.1475
      4 H4         20.9265   12.3857   30.1733 H       1  lig         0.1475
      5 H5         23.5159   14.1797   25.7551 H       1  lig         0.0877
      6 H6         23.8691   12.4836   25.8498 H       1  lig         0.0877
      7 H7         21.3008   12.0755   25.8203 H       1  lig         0.0966
      8 H8         22.7998   11.7568   23.9129 H       1  lig         0.4431
      9 H9         21.3715   12.4007   23.3669 H       1  lig         0.4431
     10 H10        22.7069   13.3810   23.5398 H       1  lig         0.4431
     11 H11        23.6279   13.3904   31.9855 H       1  lig         0.4214
     12 C1         23.9385   13.9981   28.3370 C.ar    1  lig        -0.0999
     13 C2         21.9184   12.7409   28.2996 C.ar    1  lig        -0.0999
     14 C3         23.8238   14.0721   29.6979 C.ar    1  lig        -0.1787
     15 C4         21.7717   12.8440   29.6697 C.ar    1  lig        -0.1787
     16 C5         22.9814   13.3366   27.6305 C.ar    1  lig        -0.1394
     17 C6         22.7522   13.5412   30.3656 C.ar    1  lig         0.1292
     18 C7         20.8884   14.1051   25.4229 C.2     1  lig         0.9321
     19 C8         23.1125   13.2291   26.1231 C.3     1  lig        -0.0452
     20 C9         21.8223   12.9180   25.3638 C.3     1  lig        -0.0740
     21 N1         22.1860   12.5856   23.9869 N.4     1  lig        -0.8252
     22 O1         21.3740   15.1595   25.0191 O.co2   1  lig        -0.7573
     23 O2         19.7106   14.0428   25.8786 O.co2   1  lig        -0.7573
     24 O3         22.7230   13.6354   31.6351 O.3     1  lig        -0.4913
@<TRIPOS>BOND
     1     1    12    1
     2     2    13    1
     3     3    14    1
     4     4    15    1
     5     5    19    1
     6     6    19    1
     7     7    20    1
     8     8    21    1
     9     9    21    1
    10    10    21    1
    11    11    24    1
    12    12    14   ar
    13    12    16   ar
    14    13    15   ar
    15    13    16   ar
    16    14    17   ar
    17    15    17   ar
    18    16    19    1
    19    17    24    1
    20    18    20    1
    21    18    22    1
    22    18    23    1
    23    19    20    1
    24    20    21    1
@<TRIPOS>SUBSTRUCTURE
     1 lig         1 TEMP              0 ****  ****    0 ROOT


########## Name:		ligand
########## HA_RMSDs:		13.9737
########## HA_RMSDh:		13.9485
########## HA_RMSDm:		10.6386
########## Cluster Size:	1
##########    Grid Score:          -15.094026
##########      Grid_vdw:          -14.446657
##########       Grid_es:           -0.647369
##########    Int_energy:            3.429946

@<TRIPOS>MOLECULE
ligand
 24 24 1 0 0
SMALL
No Charge or Current Charge


@<TRIPOS>ATOM
      1 H1         17.7236   17.1783   32.2197 H       1  lig         0.1340
      2 H2         13.8467   17.3216   30.4406 H       1  lig         0.1340
      3 H3         18.6657   18.0636   30.1515 H       1  lig         0.1475
      4 H4         14.7977   18.1687   28.3318 H       1  lig         0.1475
      5 H5         15.8050   16.9281   33.5604 H       1  lig         0.0877
      6 H6         14.1874   17.1400   32.9697 H       1  lig         0.0877
      7 H7         14.3917   14.8480   33.7109 H       1  lig         0.0966
      8 H8         16.8323   14.7459   33.5698 H       1  lig         0.4431
      9 H9         16.1963   13.4474   32.7559 H       1  lig         0.4431
     10 H10        16.7591   14.7625   31.9024 H       1  lig         0.4431
     11 H11        18.3617   18.6782   28.2520 H       1  lig         0.4214
     12 C1         17.0727   17.3850   31.3739 C.ar    1  lig        -0.0999
     13 C2         14.9199   17.4803   30.3646 C.ar    1  lig        -0.0999
     14 C3         17.5976   17.8865   30.2148 C.ar    1  lig        -0.1787
     15 C4         15.4444   17.9494   29.1754 C.ar    1  lig        -0.1787
     16 C5         15.7303   17.1734   31.4515 C.ar    1  lig        -0.1394
     17 C6         16.8201   18.1384   29.1156 C.ar    1  lig         0.1292
     18 C7         14.0572   14.6860   31.6352 C.2     1  lig         0.9321
     19 C8         15.1362   16.6397   32.7411 C.3     1  lig        -0.0452
     20 C9         14.9177   15.1273   32.7968 C.3     1  lig        -0.0740
     21 N1         16.2322   14.4870   32.7687 N.4     1  lig        -0.8252
     22 O1         12.8491   14.6916   31.8614 O.co2   1  lig        -0.7573
     23 O2         14.5275   14.3071   30.5243 O.co2   1  lig        -0.7573
     24 O3         17.3779   18.6201   28.0773 O.3     1  lig        -0.4913
@<TRIPOS>BOND
     1     1    12    1
     2     2    13    1
     3     3    14    1
     4     4    15    1
     5     5    19    1
     6     6    19    1
     7     7    20    1
     8     8    21    1
     9     9    21    1
    10    10    21    1
    11    11    24    1
    12    12    14   ar
    13    12    16   ar
    14    13    15   ar
    15    13    16   ar
    16    14    17   ar
    17    15    17   ar
    18    16    19    1
    19    17    24    1
    20    18    20    1
    21    18    22    1
    22    18    23    1
    23    19    20    1
    24    20    21    1
@<TRIPOS>SUBSTRUCTURE
     1 lig         1 TEMP              0 ****  ****    0 ROOT


########## Name:		ligand
########## HA_RMSDs:		11.6787
########## HA_RMSDh:		11.6469
########## HA_RMSDm:		9.7896
########## Cluster Size:	1
##########    Grid Score:          -15.039240
##########      Grid_vdw:          -16.404114
##########       Grid_es:            1.364873
##########    Int_energy:            1.428767

@<TRIPOS>MOLECULE
ligand
 24 24 1 0 0
SMALL
No Charge or Current Charge


@<TRIPOS>ATOM
      1 H1         16.2466   17.4119   27.7524 H       1  lig         0.1340
      2 H2         13.8080   15.3186   30.5609 H       1  lig         0.1340
      3 H3         15.5882   19.5130   28.8016 H       1  lig         0.1475
      4 H4         13.0998   17.4401   31.5936 H       1  lig         0.1475
      5 H5         16.5261   15.0148   28.1571 H       1  lig         0.0877
      6 H6         15.4486   14.1107   29.1732 H       1  lig         0.0877
      7 H7         14.7503   15.2448   26.4183 H       1  lig         0.0966
      8 H8         12.8569   15.2366   27.9681 H       1  lig         0.4431
      9 H9         12.6425   14.0225   26.8577 H       1  lig         0.4431
     10 H10        13.1806   13.6546   28.3905 H       1  lig         0.4431
     11 H11        14.5262   20.4550   30.2368 H       1  lig         0.4214
     12 C1         15.5520   17.4045   28.5887 C.ar    1  lig        -0.0999
     13 C2         14.1921   16.2575   30.1690 C.ar    1  lig        -0.0999
     14 C3         15.1854   18.5808   29.1824 C.ar    1  lig        -0.1787
     15 C4         13.7837   17.4425   30.7508 C.ar    1  lig        -0.1787
     16 C5         15.0510   16.2365   29.0762 C.ar    1  lig        -0.1394
     17 C6         14.2944   18.6220   30.2219 C.ar    1  lig         0.1292
     18 C7         15.2221   13.2034   26.6567 C.2     1  lig         0.9321
     19 C8         15.4705   14.9254   28.4392 C.3     1  lig        -0.0452
     20 C9         14.6697   14.4974   27.2090 C.3     1  lig        -0.0740
     21 N1         13.2717   14.3578   27.6151 N.4     1  lig        -0.8252
     22 O1         16.1269   13.3414   25.8365 O.co2   1  lig        -0.7573
     23 O2         14.7786   12.0635   26.9773 O.co2   1  lig        -0.7573
     24 O3         14.0137   19.7535   30.7339 O.3     1  lig        -0.4913
@<TRIPOS>BOND
     1     1    12    1
     2     2    13    1
     3     3    14    1
     4     4    15    1
     5     5    19    1
     6     6    19    1
     7     7    20    1
     8     8    21    1
     9     9    21    1
    10    10    21    1
    11    11    24    1
    12    12    14   ar
    13    12    16   ar
    14    13    15   ar
    15    13    16   ar
    16    14    17   ar
    17    15    17   ar
    18    16    19    1
    19    17    24    1
    20    18    20    1
    21    18    22    1
    22    18    23    1
    23    19    20    1
    24    20    21    1
@<TRIPOS>SUBSTRUCTURE
     1 lig         1 TEMP              0 ****  ****    0 ROOT


########## Name:		ligand
########## HA_RMSDs:		14.8328
########## HA_RMSDh:		14.7483
########## HA_RMSDm:		11.7390
########## Cluster Size:	1
##########    Grid Score:          -14.916473
##########      Grid_vdw:          -13.524601
##########       Grid_es:           -1.391872
##########    Int_energy:            2.585399

@<TRIPOS>MOLECULE
ligand
 24 24 1 0 0
SMALL
No Charge or Current Charge


@<TRIPOS>ATOM
      1 H1         25.0534    3.4113   13.7552 H       1  lig         0.1340
      2 H2         24.0679    6.9028   16.0032 H       1  lig         0.1340
      3 H3         26.0371    2.4394   15.7643 H       1  lig         0.1475
      4 H4         25.1042    5.9476   18.0239 H       1  lig         0.1475
      5 H5         23.6659    5.0080   12.8151 H       1  lig         0.0877
      6 H6         22.9143    6.2699   13.7389 H       1  lig         0.0877
      7 H7         24.5930    6.7894   11.6927 H       1  lig         0.0966
      8 H8         26.4688    5.6849   12.8101 H       1  lig         0.4431
      9 H9         26.8001    7.3061   12.6886 H       1  lig         0.4431
     10 H10        26.2872    6.6743   14.1420 H       1  lig         0.4431
     11 H11        27.1585    3.4412   17.8450 H       1  lig         0.4214
     12 C1         25.0636    3.9798   14.6817 C.ar    1  lig        -0.0999
     13 C2         24.5173    5.9136   15.9562 C.ar    1  lig        -0.0999
     14 C3         25.6097    3.4350   15.8112 C.ar    1  lig        -0.1787
     15 C4         25.1019    5.3893   17.0931 C.ar    1  lig        -0.1787
     16 C5         24.5200    5.2259   14.7481 C.ar    1  lig        -0.1394
     17 C6         25.6671    4.1234   16.9939 C.ar    1  lig         0.1292
     18 C7         24.3071    8.2620   13.1748 C.2     1  lig         0.9321
     19 C8         23.8910    5.8287   13.5063 C.3     1  lig        -0.0452
     20 C9         24.7359    6.8699   12.7713 C.3     1  lig        -0.0740
     21 N1         26.1379    6.6195   13.1034 N.4     1  lig        -0.8252
     22 O1         23.3210    8.6876   12.5772 O.co2   1  lig        -0.7573
     23 O2         24.9213    8.9591   14.0325 O.co2   1  lig        -0.7573
     24 O3         26.1762    3.5442   18.0072 O.3     1  lig        -0.4913
@<TRIPOS>BOND
     1     1    12    1
     2     2    13    1
     3     3    14    1
     4     4    15    1
     5     5    19    1
     6     6    19    1
     7     7    20    1
     8     8    21    1
     9     9    21    1
    10    10    21    1
    11    11    24    1
    12    12    14   ar
    13    12    16   ar
    14    13    15   ar
    15    13    16   ar
    16    14    17   ar
    17    15    17   ar
    18    16    19    1
    19    17    24    1
    20    18    20    1
    21    18    22    1
    22    18    23    1
    23    19    20    1
    24    20    21    1
@<TRIPOS>SUBSTRUCTURE
     1 lig         1 TEMP              0 ****  ****    0 ROOT


########## Name:		ligand
########## HA_RMSDs:		16.0443
########## HA_RMSDh:		16.0365
########## HA_RMSDm:		13.6746
########## Cluster Size:	1
##########    Grid Score:          -14.887985
##########      Grid_vdw:          -12.038261
##########       Grid_es:           -2.849723
##########    Int_energy:            3.154207

@<TRIPOS>MOLECULE
ligand
 24 24 1 0 0
SMALL
No Charge or Current Charge


@<TRIPOS>ATOM
      1 H1         26.5142    7.0355   12.6078 H       1  lig         0.1340
      2 H2         24.1537    3.5545   11.8826 H       1  lig         0.1340
      3 H3         24.5114    8.1863   13.3910 H       1  lig         0.1475
      4 H4         22.1181    4.7266   12.6253 H       1  lig         0.1475
      5 H5         26.3783    3.5909   11.1908 H       1  lig         0.0877
      6 H6         27.2219    5.0850   10.9328 H       1  lig         0.0877
      7 H7         27.5859    4.7734   13.6652 H       1  lig         0.0966
      8 H8         29.2555    5.2552   11.9427 H       1  lig         0.4431
      9 H9         29.8091    4.0092   12.8882 H       1  lig         0.4431
     10 H10        29.1673    3.6842   11.3859 H       1  lig         0.4431
     11 H11        21.3703    6.7409   13.1914 H       1  lig         0.4214
     12 C1         25.5569    6.5206   12.6005 C.ar    1  lig        -0.0999
     13 C2         24.2229    4.5890   12.2108 C.ar    1  lig        -0.0999
     14 C3         24.4332    7.1617   13.0443 C.ar    1  lig        -0.1787
     15 C4         23.0744    5.2398   12.6192 C.ar    1  lig        -0.1787
     16 C5         25.4550    5.2316   12.1752 C.ar    1  lig        -0.1394
     17 C6         23.2021    6.5615   13.0301 C.ar    1  lig         0.1292
     18 C7         27.4554    2.7090   13.2556 C.2     1  lig         0.9321
     19 C8         26.7002    4.5048   11.7036 C.3     1  lig        -0.0452
     20 C9         27.7029    4.1269   12.7943 C.3     1  lig        -0.0740
     21 N1         29.0460    4.2868   12.2380 N.4     1  lig        -0.8252
     22 O1         26.2699    2.3914   13.3215 O.co2   1  lig        -0.7573
     23 O2         28.3803    1.9112   13.5825 O.co2   1  lig        -0.7573
     24 O3         22.2044    7.2162   13.4742 O.3     1  lig        -0.4913
@<TRIPOS>BOND
     1     1    12    1
     2     2    13    1
     3     3    14    1
     4     4    15    1
     5     5    19    1
     6     6    19    1
     7     7    20    1
     8     8    21    1
     9     9    21    1
    10    10    21    1
    11    11    24    1
    12    12    14   ar
    13    12    16   ar
    14    13    15   ar
    15    13    16   ar
    16    14    17   ar
    17    15    17   ar
    18    16    19    1
    19    17    24    1
    20    18    20    1
    21    18    22    1
    22    18    23    1
    23    19    20    1
    24    20    21    1
@<TRIPOS>SUBSTRUCTURE
     1 lig         1 TEMP              0 ****  ****    0 ROOT


########## Name:		ligand
########## HA_RMSDs:		13.9513
########## HA_RMSDh:		13.9195
########## HA_RMSDm:		11.2286
########## Cluster Size:	1
##########    Grid Score:          -14.877665
##########      Grid_vdw:          -13.740688
##########       Grid_es:           -1.136976
##########    Int_energy:            2.210081

@<TRIPOS>MOLECULE
ligand
 24 24 1 0 0
SMALL
No Charge or Current Charge


@<TRIPOS>ATOM
      1 H1         12.7433   16.6070   31.2139 H       1  lig         0.1340
      2 H2         16.1992   14.3417   30.1457 H       1  lig         0.1340
      3 H3         13.7115   18.5447   30.0929 H       1  lig         0.1475
      4 H4         17.2051   16.3083   29.0550 H       1  lig         0.1475
      5 H5         14.5556   13.7602   32.1602 H       1  lig         0.0877
      6 H6         12.9595   14.4350   32.0719 H       1  lig         0.0877
      7 H7         14.2022   12.7284   29.8552 H       1  lig         0.0966
      8 H8         12.4684   14.3021   29.1453 H       1  lig         0.4431
      9 H9         11.8445   12.7653   29.1004 H       1  lig         0.4431
     10 H10        11.4596   13.7766   30.3668 H       1  lig         0.4431
     11 H11        16.8871   18.4450   28.6761 H       1  lig         0.4214
     12 C1         13.7237   16.5299   30.7507 C.ar    1  lig        -0.0999
     13 C2         15.6563   15.2839   30.1380 C.ar    1  lig        -0.0999
     14 C3         14.2666   17.6134   30.1167 C.ar    1  lig        -0.1787
     15 C4         16.2318   16.3830   29.5295 C.ar    1  lig        -0.1787
     16 C5         14.4203   15.3606   30.7695 C.ar    1  lig        -0.1394
     17 C6         15.5088   17.5700   29.5410 C.ar    1  lig         0.1292
     18 C7         13.0327   11.7853   31.3350 C.2     1  lig         0.9321
     19 C8         13.8156   14.1471   31.4498 C.3     1  lig        -0.0452
     20 C9         13.3861   13.0098   30.5224 C.3     1  lig        -0.0740
     21 N1         12.2473   13.4832   29.7365 N.4     1  lig        -0.8252
     22 O1         12.4515   12.0221   32.3917 O.co2   1  lig        -0.7573
     23 O2         13.3324   10.6074   30.9862 O.co2   1  lig        -0.7573
     24 O3         15.9409   18.6144   28.9548 O.3     1  lig        -0.4913
@<TRIPOS>BOND
     1     1    12    1
     2     2    13    1
     3     3    14    1
     4     4    15    1
     5     5    19    1
     6     6    19    1
     7     7    20    1
     8     8    21    1
     9     9    21    1
    10    10    21    1
    11    11    24    1
    12    12    14   ar
    13    12    16   ar
    14    13    15   ar
    15    13    16   ar
    16    14    17   ar
    17    15    17   ar
    18    16    19    1
    19    17    24    1
    20    18    20    1
    21    18    22    1
    22    18    23    1
    23    19    20    1
    24    20    21    1
@<TRIPOS>SUBSTRUCTURE
     1 lig         1 TEMP              0 ****  ****    0 ROOT


########## Name:		ligand
########## HA_RMSDs:		14.1569
########## HA_RMSDh:		14.1154
########## HA_RMSDm:		12.0890
########## Cluster Size:	1
##########    Grid Score:          -14.876765
##########      Grid_vdw:          -15.399465
##########       Grid_es:            0.522699
##########    Int_energy:            4.782677

@<TRIPOS>MOLECULE
ligand
 24 24 1 0 0
SMALL
No Charge or Current Charge


@<TRIPOS>ATOM
      1 H1         10.2210    9.6706   27.3111 H       1  lig         0.1340
      2 H2         10.7005   13.2764   25.0787 H       1  lig         0.1340
      3 H3          8.5734    8.9204   25.6767 H       1  lig         0.1475
      4 H4          9.0009   12.5466   23.4515 H       1  lig         0.1475
      5 H5         12.4274   11.2936   27.2688 H       1  lig         0.0877
      6 H6         12.0115   12.9588   27.0142 H       1  lig         0.0877
      7 H7         11.7268   12.8019   29.3208 H       1  lig         0.0966
      8 H8         12.1825   10.3985   29.3742 H       1  lig         0.4431
      9 H9         10.8716   10.7144   30.3411 H       1  lig         0.4431
     10 H10        10.6418   10.0713   28.8218 H       1  lig         0.4431
     11 H11         7.4399    9.3616   24.0520 H       1  lig         0.4214
     12 C1          9.9584   10.3126   26.4742 C.ar    1  lig        -0.0999
     13 C2         10.2150   12.3122   25.2098 C.ar    1  lig        -0.0999
     14 C3          9.0388    9.8922   25.5532 C.ar    1  lig        -0.1787
     15 C4          9.2583   11.9147   24.2955 C.ar    1  lig        -0.1787
     16 C5         10.5465   11.5291   26.3096 C.ar    1  lig        -0.1394
     17 C6          8.6586   10.6771   24.4970 C.ar    1  lig         0.1292
     18 C7          9.6904   12.6153   28.8059 C.2     1  lig         0.9321
     19 C8         11.5849   11.9936   27.3130 C.3     1  lig        -0.0452
     20 C9         11.1095   12.0966   28.7626 C.3     1  lig        -0.0740
     21 N1         11.2163   10.7664   29.3610 N.4     1  lig        -0.8252
     22 O1          9.5272   13.7065   28.2644 O.co2   1  lig        -0.7573
     23 O2          8.7424   12.0043   29.3775 O.co2   1  lig        -0.7573
     24 O3          7.8085   10.2108   23.6717 O.3     1  lig        -0.4913
@<TRIPOS>BOND
     1     1    12    1
     2     2    13    1
     3     3    14    1
     4     4    15    1
     5     5    19    1
     6     6    19    1
     7     7    20    1
     8     8    21    1
     9     9    21    1
    10    10    21    1
    11    11    24    1
    12    12    14   ar
    13    12    16   ar
    14    13    15   ar
    15    13    16   ar
    16    14    17   ar
    17    15    17   ar
    18    16    19    1
    19    17    24    1
    20    18    20    1
    21    18    22    1
    22    18    23    1
    23    19    20    1
    24    20    21    1
@<TRIPOS>SUBSTRUCTURE
     1 lig         1 TEMP              0 ****  ****    0 ROOT


########## Name:		ligand
########## HA_RMSDs:		12.8009
########## HA_RMSDh:		12.7701
########## HA_RMSDm:		10.2048
########## Cluster Size:	1
##########    Grid Score:          -14.737336
##########      Grid_vdw:          -14.396668
##########       Grid_es:           -0.340667
##########    Int_energy:            3.292365

@<TRIPOS>MOLECULE
ligand
 24 24 1 0 0
SMALL
No Charge or Current Charge


@<TRIPOS>ATOM
      1 H1         16.5565   17.3566   28.0881 H       1  lig         0.1340
      2 H2         13.8799   15.3637   30.7489 H       1  lig         0.1340
      3 H3         15.6626   19.4948   28.8482 H       1  lig         0.1475
      4 H4         12.9378   17.5178   31.4846 H       1  lig         0.1475
      5 H5         15.0048   14.1646   28.9108 H       1  lig         0.0877
      6 H6         16.1345   14.9419   27.8477 H       1  lig         0.0877
      7 H7         17.3632   13.4193   29.2927 H       1  lig         0.0966
      8 H8         15.7178   13.3860   31.1034 H       1  lig         0.4431
      9 H9         17.2060   13.7478   31.7417 H       1  lig         0.4431
     10 H10        16.0919   14.9628   31.5027 H       1  lig         0.4431
     11 H11        14.4182   20.4875   30.0941 H       1  lig         0.4214
     12 C1         15.7600   17.3776   28.8276 C.ar    1  lig        -0.0999
     13 C2         14.2644   16.2877   30.3236 C.ar    1  lig        -0.0999
     14 C3         15.2607   18.5754   29.2596 C.ar    1  lig        -0.1787
     15 C4         13.7249   17.4905   30.7378 C.ar    1  lig        -0.1787
     16 C5         15.2586   16.2268   29.3539 C.ar    1  lig        -0.1394
     17 C6         14.2407   18.6500   30.1708 C.ar    1  lig         0.1292
     18 C7         18.1252   15.3340   29.7404 C.2     1  lig         0.9321
     19 C8         15.8227   14.8945   28.8981 C.3     1  lig        -0.0452
     20 C9         16.9827   14.3443   29.7285 C.3     1  lig        -0.0740
     21 N1         16.4800   14.0841   31.0769 N.4     1  lig        -0.8252
     22 O1         18.9476   15.1777   28.8405 O.co2   1  lig        -0.7573
     23 O2         18.2569   16.2354   30.6173 O.co2   1  lig        -0.7573
     24 O3         13.8394   19.8016   30.5371 O.3     1  lig        -0.4913
@<TRIPOS>BOND
     1     1    12    1
     2     2    13    1
     3     3    14    1
     4     4    15    1
     5     5    19    1
     6     6    19    1
     7     7    20    1
     8     8    21    1
     9     9    21    1
    10    10    21    1
    11    11    24    1
    12    12    14   ar
    13    12    16   ar
    14    13    15   ar
    15    13    16   ar
    16    14    17   ar
    17    15    17   ar
    18    16    19    1
    19    17    24    1
    20    18    20    1
    21    18    22    1
    22    18    23    1
    23    19    20    1
    24    20    21    1
@<TRIPOS>SUBSTRUCTURE
     1 lig         1 TEMP              0 ****  ****    0 ROOT


########## Name:		ligand
########## HA_RMSDs:		16.3299
########## HA_RMSDh:		16.2995
########## HA_RMSDm:		14.6135
########## Cluster Size:	1
##########    Grid Score:          -14.712816
##########      Grid_vdw:          -10.231203
##########       Grid_es:           -4.481614
##########    Int_energy:            3.011445

@<TRIPOS>MOLECULE
ligand
 24 24 1 0 0
SMALL
No Charge or Current Charge


@<TRIPOS>ATOM
      1 H1          7.5556    8.9620   29.3403 H       1  lig         0.1340
      2 H2          9.9924    9.0492   25.8375 H       1  lig         0.1340
      3 H3          6.0195    7.4563   28.1904 H       1  lig         0.1475
      4 H4          8.4194    7.5686   24.6532 H       1  lig         0.1475
      5 H5         10.0102    9.6209   29.3654 H       1  lig         0.0877
      6 H6         10.8065   10.0314   27.8794 H       1  lig         0.0877
      7 H7         10.2248   12.1479   28.6882 H       1  lig         0.0966
      8 H8          8.9246   11.2702   30.5660 H       1  lig         0.4431
      9 H9          8.0655   12.4953   29.8489 H       1  lig         0.4431
     10 H10         7.6531   10.9100   29.5464 H       1  lig         0.4431
     11 H11         5.8755    6.0688   26.5621 H       1  lig         0.4214
     12 C1          7.7531    8.6697   28.3121 C.ar    1  lig        -0.0999
     13 C2          9.1004    8.6978   26.3508 C.ar    1  lig        -0.0999
     14 C3          6.8963    7.8212   27.6667 C.ar    1  lig        -0.1787
     15 C4          8.2209    7.8731   25.6758 C.ar    1  lig        -0.1787
     16 C5          8.8571    9.1174   27.6536 C.ar    1  lig        -0.1394
     17 C6          7.0914    7.4457   26.3639 C.ar    1  lig         0.1292
     18 C7          8.6836   11.9567   27.2617 C.2     1  lig         0.9321
     19 C8          9.8253   10.0400   28.3694 C.3     1  lig        -0.0452
     20 C9          9.3691   11.4909   28.5258 C.3     1  lig        -0.0740
     21 N1          8.4731   11.5532   29.6799 N.4     1  lig        -0.8252
     22 O1          9.4463   12.2486   26.3432 O.co2   1  lig        -0.7573
     23 O2          7.4294   12.0735   27.1518 O.co2   1  lig        -0.7573
     24 O3          6.2593    6.6398   25.8353 O.3     1  lig        -0.4913
@<TRIPOS>BOND
     1     1    12    1
     2     2    13    1
     3     3    14    1
     4     4    15    1
     5     5    19    1
     6     6    19    1
     7     7    20    1
     8     8    21    1
     9     9    21    1
    10    10    21    1
    11    11    24    1
    12    12    14   ar
    13    12    16   ar
    14    13    15   ar
    15    13    16   ar
    16    14    17   ar
    17    15    17   ar
    18    16    19    1
    19    17    24    1
    20    18    20    1
    21    18    22    1
    22    18    23    1
    23    19    20    1
    24    20    21    1
@<TRIPOS>SUBSTRUCTURE
     1 lig         1 TEMP              0 ****  ****    0 ROOT


########## Name:		ligand
########## HA_RMSDs:		12.3832
########## HA_RMSDh:		12.3622
########## HA_RMSDm:		10.5432
########## Cluster Size:	1
##########    Grid Score:          -14.694625
##########      Grid_vdw:          -11.843733
##########       Grid_es:           -2.850892
##########    Int_energy:            1.456536

@<TRIPOS>MOLECULE
ligand
 24 24 1 0 0
SMALL
No Charge or Current Charge


@<TRIPOS>ATOM
      1 H1         15.0280   15.3014   31.2043 H       1  lig         0.1340
      2 H2         17.7211   17.7673   28.9949 H       1  lig         0.1340
      3 H3         13.2548   16.9220   30.7820 H       1  lig         0.1475
      4 H4         15.9474   19.4325   28.6071 H       1  lig         0.1475
      5 H5         18.5297   15.9846   30.5215 H       1  lig         0.0877
      6 H6         17.4413   14.9129   31.3446 H       1  lig         0.0877
      7 H7         16.9181   14.3442   28.6383 H       1  lig         0.0966
      8 H8         17.1758   12.7929   30.5129 H       1  lig         0.4431
      9 H9         18.1755   12.3101   29.2798 H       1  lig         0.4431
     10 H10        18.8105   13.1210   30.5889 H       1  lig         0.4431
     11 H11        12.6738   18.5129   29.4159 H       1  lig         0.4214
     12 C1         15.2442   16.2047   30.6396 C.ar    1  lig        -0.0999
     13 C2         16.7264   17.5915   29.3976 C.ar    1  lig        -0.0999
     14 C3         14.2504   17.1125   30.3967 C.ar    1  lig        -0.1787
     15 C4         15.7401   18.5346   29.1804 C.ar    1  lig        -0.1787
     16 C5         16.4898   16.4440   30.1458 C.ar    1  lig        -0.1394
     17 C6         14.4821   18.2759   29.7118 C.ar    1  lig         0.1292
     18 C7         18.9748   14.7604   28.4296 C.2     1  lig         0.9321
     19 C8         17.5925   15.4313   30.3900 C.3     1  lig        -0.0452
     20 C9         17.7909   14.3863   29.2916 C.3     1  lig        -0.0740
     21 N1         17.9841   13.0902   29.9408 N.4     1  lig        -0.8252
     22 O1         20.0692   14.6047   28.9669 O.co2   1  lig        -0.7573
     23 O2         18.8649   15.2282   27.2600 O.co2   1  lig        -0.7573
     24 O3         13.5032   19.0650   29.5108 O.3     1  lig        -0.4913
@<TRIPOS>BOND
     1     1    12    1
     2     2    13    1
     3     3    14    1
     4     4    15    1
     5     5    19    1
     6     6    19    1
     7     7    20    1
     8     8    21    1
     9     9    21    1
    10    10    21    1
    11    11    24    1
    12    12    14   ar
    13    12    16   ar
    14    13    15   ar
    15    13    16   ar
    16    14    17   ar
    17    15    17   ar
    18    16    19    1
    19    17    24    1
    20    18    20    1
    21    18    22    1
    22    18    23    1
    23    19    20    1
    24    20    21    1
@<TRIPOS>SUBSTRUCTURE
     1 lig         1 TEMP              0 ****  ****    0 ROOT


########## Name:		ligand
########## HA_RMSDs:		14.2963
########## HA_RMSDh:		14.2340
########## HA_RMSDm:		11.3596
########## Cluster Size:	1
##########    Grid Score:          -14.681095
##########      Grid_vdw:          -15.217757
##########       Grid_es:            0.536662
##########    Int_energy:            1.258138

@<TRIPOS>MOLECULE
ligand
 24 24 1 0 0
SMALL
No Charge or Current Charge


@<TRIPOS>ATOM
      1 H1         26.3811    4.7050   13.7605 H       1  lig         0.1340
      2 H2         25.5119    8.7943   14.6195 H       1  lig         0.1340
      3 H3         28.0346    4.7175   15.5534 H       1  lig         0.1475
      4 H4         27.2156    8.8283   16.3986 H       1  lig         0.1475
      5 H5         24.6362    7.7886   12.6682 H       1  lig         0.0877
      6 H6         25.2110    6.2705   12.0554 H       1  lig         0.0877
      7 H7         23.3134    6.1225   14.3931 H       1  lig         0.0966
      8 H8         24.2691    4.1529   13.3002 H       1  lig         0.4431
      9 H9         22.6368    4.1875   13.0046 H       1  lig         0.4431
     10 H10        23.7016    4.6718   11.8188 H       1  lig         0.4431
     11 H11        28.3697    5.9110   17.5830 H       1  lig         0.4214
     12 C1         26.5585    5.6161   14.3263 C.ar    1  lig        -0.0999
     13 C2         26.0849    7.8937   14.8274 C.ar    1  lig        -0.0999
     14 C3         27.4813    5.6244   15.3358 C.ar    1  lig        -0.1787
     15 C4         27.0428    7.9247   15.8227 C.ar    1  lig        -0.1787
     16 C5         25.8600    6.7544   14.0632 C.ar    1  lig        -0.1394
     17 C6         27.7559    6.7552   16.0584 C.ar    1  lig         0.1292
     18 C7         22.3465    6.8654   12.6726 C.2     1  lig         0.9321
     19 C8         24.8178    6.7479   12.9611 C.3     1  lig        -0.0452
     20 C9         23.4795    6.0985   13.3151 C.3     1  lig        -0.0740
     21 N1         23.5226    4.7115   12.8533 N.4     1  lig        -0.8252
     22 O1         21.8951    7.7812   13.3568 O.co2   1  lig        -0.7573
     23 O2         21.8678    6.5803   11.5375 O.co2   1  lig        -0.7573
     24 O3         28.6167    6.6814   16.9938 O.3     1  lig        -0.4913
@<TRIPOS>BOND
     1     1    12    1
     2     2    13    1
     3     3    14    1
     4     4    15    1
     5     5    19    1
     6     6    19    1
     7     7    20    1
     8     8    21    1
     9     9    21    1
    10    10    21    1
    11    11    24    1
    12    12    14   ar
    13    12    16   ar
    14    13    15   ar
    15    13    16   ar
    16    14    17   ar
    17    15    17   ar
    18    16    19    1
    19    17    24    1
    20    18    20    1
    21    18    22    1
    22    18    23    1
    23    19    20    1
    24    20    21    1
@<TRIPOS>SUBSTRUCTURE
     1 lig         1 TEMP              0 ****  ****    0 ROOT


########## Name:		ligand
########## HA_RMSDs:		13.9208
########## HA_RMSDh:		13.8118
########## HA_RMSDm:		11.5679
########## Cluster Size:	1
##########    Grid Score:          -14.603260
##########      Grid_vdw:          -13.350228
##########       Grid_es:           -1.253032
##########    Int_energy:            3.466117

@<TRIPOS>MOLECULE
ligand
 24 24 1 0 0
SMALL
No Charge or Current Charge


@<TRIPOS>ATOM
      1 H1          9.0056   10.7986   22.5889 H       1  lig         0.1340
      2 H2          8.2687   10.1295   26.7392 H       1  lig         0.1340
      3 H3          7.4320    9.0121   22.0586 H       1  lig         0.1475
      4 H4          6.7161    8.2908   26.2120 H       1  lig         0.1475
      5 H5          9.4023   12.5703   24.4722 H       1  lig         0.0877
      6 H6          9.6247   11.9727   26.0859 H       1  lig         0.0877
      7 H7         11.8328   12.0722   25.3048 H       1  lig         0.0966
      8 H8         11.1937   12.6062   23.0041 H       1  lig         0.4431
      9 H9         12.3644   11.4310   22.9732 H       1  lig         0.4431
     10 H10        10.7700   11.0155   22.7287 H       1  lig         0.4431
     11 H11         5.6217    7.3857   24.5189 H       1  lig         0.4214
     12 C1          8.5159   10.2532   23.3917 C.ar    1  lig        -0.0999
     13 C2          8.0842    9.8678   25.6999 C.ar    1  lig        -0.0999
     14 C3          7.6289    9.2546   23.0971 C.ar    1  lig        -0.1787
     15 C4          7.2169    8.8307   25.4146 C.ar    1  lig        -0.1787
     16 C5          8.7524   10.5601   24.6966 C.ar    1  lig        -0.1394
     17 C6          7.0075    8.5243   24.0752 C.ar    1  lig         0.1292
     18 C7         11.5436    9.9913   25.1224 C.2     1  lig         0.9321
     19 C8          9.7166   11.6819   25.0324 C.3     1  lig        -0.0452
     20 C9         11.1894   11.4066   24.7274 C.3     1  lig        -0.0740
     21 N1         11.3979   11.6363   23.2983 N.4     1  lig        -0.8252
     22 O1         11.7054    9.8215   26.3289 O.co2   1  lig        -0.7573
     23 O2         11.6970    9.0530   24.2888 O.co2   1  lig        -0.7573
     24 O3          6.1820    7.6209   23.7236 O.3     1  lig        -0.4913
@<TRIPOS>BOND
     1     1    12    1
     2     2    13    1
     3     3    14    1
     4     4    15    1
     5     5    19    1
     6     6    19    1
     7     7    20    1
     8     8    21    1
     9     9    21    1
    10    10    21    1
    11    11    24    1
    12    12    14   ar
    13    12    16   ar
    14    13    15   ar
    15    13    16   ar
    16    14    17   ar
    17    15    17   ar
    18    16    19    1
    19    17    24    1
    20    18    20    1
    21    18    22    1
    22    18    23    1
    23    19    20    1
    24    20    21    1
@<TRIPOS>SUBSTRUCTURE
     1 lig         1 TEMP              0 ****  ****    0 ROOT


########## Name:		ligand
########## HA_RMSDs:		15.1136
########## HA_RMSDh:		15.0357
########## HA_RMSDm:		12.1310
########## Cluster Size:	1
##########    Grid Score:          -14.594064
##########      Grid_vdw:           -9.043524
##########       Grid_es:           -5.550540
##########    Int_energy:            4.356790

@<TRIPOS>MOLECULE
ligand
 24 24 1 0 0
SMALL
No Charge or Current Charge


@<TRIPOS>ATOM
      1 H1         21.4046   19.8294   31.0482 H       1  lig         0.1340
      2 H2         22.9773   16.1187   32.4529 H       1  lig         0.1340
      3 H3         19.4287   18.6464   30.2450 H       1  lig         0.1475
      4 H4         21.0072   14.9105   31.5995 H       1  lig         0.1475
      5 H5         23.2061   19.7130   32.7563 H       1  lig         0.0877
      6 H6         24.0162   18.2220   33.1183 H       1  lig         0.0877
      7 H7         25.4935   19.5485   31.7291 H       1  lig         0.0966
      8 H8         23.7428   20.9454   30.7439 H       1  lig         0.4431
      9 H9         24.6701   20.3120   29.5225 H       1  lig         0.4431
     10 H10        23.1781   19.6503   29.8553 H       1  lig         0.4431
     11 H11        18.9442   15.2859   30.8532 H       1  lig         0.4214
     12 C1         21.3330   18.7515   31.1696 C.ar    1  lig        -0.0999
     13 C2         22.1872   16.6725   31.9514 C.ar    1  lig        -0.0999
     14 C3         20.2237   18.0864   30.7250 C.ar    1  lig        -0.1787
     15 C4         21.0893   15.9850   31.4704 C.ar    1  lig        -0.1787
     16 C5         22.3238   18.0453   31.7799 C.ar    1  lig        -0.1394
     17 C6         20.1009   16.7265   30.8339 C.ar    1  lig         0.1292
     18 C7         25.0736   17.8397   30.5669 C.2     1  lig         0.9321
     19 C8         23.5472   18.7778   32.2973 C.3     1  lig        -0.0452
     20 C9         24.6165   19.1057   31.2547 C.3     1  lig        -0.0740
     21 N1         24.0361   20.0557   30.3064 N.4     1  lig        -0.8252
     22 O1         24.3304   17.4469   29.6703 O.co2   1  lig        -0.7573
     23 O2         26.1166   17.2055   30.8966 O.co2   1  lig        -0.7573
     24 O3         19.0314   16.1797   30.4114 O.3     1  lig        -0.4913
@<TRIPOS>BOND
     1     1    12    1
     2     2    13    1
     3     3    14    1
     4     4    15    1
     5     5    19    1
     6     6    19    1
     7     7    20    1
     8     8    21    1
     9     9    21    1
    10    10    21    1
    11    11    24    1
    12    12    14   ar
    13    12    16   ar
    14    13    15   ar
    15    13    16   ar
    16    14    17   ar
    17    15    17   ar
    18    16    19    1
    19    17    24    1
    20    18    20    1
    21    18    22    1
    22    18    23    1
    23    19    20    1
    24    20    21    1
@<TRIPOS>SUBSTRUCTURE
     1 lig         1 TEMP              0 ****  ****    0 ROOT


########## Name:		ligand
########## HA_RMSDs:		16.6519
########## HA_RMSDh:		16.5947
########## HA_RMSDm:		14.9584
########## Cluster Size:	1
##########    Grid Score:          -14.510574
##########      Grid_vdw:          -11.913830
##########       Grid_es:           -2.596745
##########    Int_energy:            2.884317

@<TRIPOS>MOLECULE
ligand
 24 24 1 0 0
SMALL
No Charge or Current Charge


@<TRIPOS>ATOM
      1 H1          9.3053    9.8381   26.1683 H       1  lig         0.1340
      2 H2          6.9957    8.1451   29.3330 H       1  lig         0.1340
      3 H3          7.7572    8.8543   24.5608 H       1  lig         0.1475
      4 H4          5.4567    7.1070   27.7133 H       1  lig         0.1475
      5 H5          9.3166    8.9576   29.6909 H       1  lig         0.0877
      6 H6         10.2195    9.7447   28.4355 H       1  lig         0.0877
      7 H7          8.9117   11.0496   30.4915 H       1  lig         0.0966
      8 H8          6.7533   10.5176   29.4692 H       1  lig         0.4431
      9 H9          7.0093   12.1529   29.3540 H       1  lig         0.4431
     10 H10         7.2496   11.1831   28.0213 H       1  lig         0.4431
     11 H11         6.2323    7.5108   24.2380 H       1  lig         0.4214
     12 C1          8.4704    9.2371   26.5197 C.ar    1  lig        -0.0999
     13 C2          7.1637    8.2899   28.2684 C.ar    1  lig        -0.0999
     14 C3          7.5976    8.6888   25.6206 C.ar    1  lig        -0.1787
     15 C4          6.2989    7.6981   27.3677 C.ar    1  lig        -0.1787
     16 C5          8.2604    9.0342   27.8491 C.ar    1  lig        -0.1394
     17 C6          6.5466    7.9043   26.0157 C.ar    1  lig         0.1292
     18 C7          9.6722   12.1056   28.8322 C.2     1  lig         0.9321
     19 C8          9.2096    9.6582   28.8544 C.3     1  lig        -0.0452
     20 C9          8.7909   11.0208   29.4076 C.3     1  lig        -0.0740
     21 N1          7.3850   11.2278   29.0623 N.4     1  lig        -0.8252
     22 O1          9.2146   12.6633   27.8371 O.co2   1  lig        -0.7573
     23 O2         10.8062   12.4055   29.3044 O.co2   1  lig        -0.7573
     24 O3          5.7670    7.4418   25.1215 O.3     1  lig        -0.4913
@<TRIPOS>BOND
     1     1    12    1
     2     2    13    1
     3     3    14    1
     4     4    15    1
     5     5    19    1
     6     6    19    1
     7     7    20    1
     8     8    21    1
     9     9    21    1
    10    10    21    1
    11    11    24    1
    12    12    14   ar
    13    12    16   ar
    14    13    15   ar
    15    13    16   ar
    16    14    17   ar
    17    15    17   ar
    18    16    19    1
    19    17    24    1
    20    18    20    1
    21    18    22    1
    22    18    23    1
    23    19    20    1
    24    20    21    1
@<TRIPOS>SUBSTRUCTURE
     1 lig         1 TEMP              0 ****  ****    0 ROOT


########## Name:		ligand
########## HA_RMSDs:		13.5425
########## HA_RMSDh:		13.4922
########## HA_RMSDm:		11.1920
########## Cluster Size:	1
##########    Grid Score:          -14.492413
##########      Grid_vdw:          -14.347676
##########       Grid_es:           -0.144736
##########    Int_energy:            1.262378

@<TRIPOS>MOLECULE
ligand
 24 24 1 0 0
SMALL
No Charge or Current Charge


@<TRIPOS>ATOM
      1 H1         10.5468   13.0944   29.5257 H       1  lig         0.1340
      2 H2         13.1271   12.6489   26.1554 H       1  lig         0.1340
      3 H3          8.6505   12.5171   28.1046 H       1  lig         0.1475
      4 H4         11.2102   12.1139   24.7033 H       1  lig         0.1475
      5 H5         12.9174   12.9042   29.8167 H       1  lig         0.0877
      6 H6         14.0277   12.7113   28.4973 H       1  lig         0.0877
      7 H7         12.6309   15.3750   28.6576 H       1  lig         0.0966
      8 H8         14.2900   14.8109   26.9499 H       1  lig         0.4431
      9 H9         14.9187   15.9879   27.9360 H       1  lig         0.4431
     10 H10        15.3989   14.4048   28.1294 H       1  lig         0.4431
     11 H11         8.4794   11.0784   25.9324 H       1  lig         0.4214
     12 C1         10.7050   12.8881   28.4702 C.ar    1  lig        -0.0999
     13 C2         12.1259   12.6270   26.5793 C.ar    1  lig        -0.0999
     14 C3          9.6442   12.5588   27.6722 C.ar    1  lig        -0.1787
     15 C4         11.0565   12.3324   25.7552 C.ar    1  lig        -0.1787
     16 C5         11.9514   12.9300   27.9247 C.ar    1  lig        -0.1394
     17 C6          9.7922   12.3154   26.3324 C.ar    1  lig         0.1292
     18 C7         13.9241   15.1025   30.3009 C.2     1  lig         0.9321
     19 C8         13.1370   13.2712   28.8073 C.3     1  lig        -0.0452
     20 C9         13.4969   14.7547   28.8933 C.3     1  lig        -0.0740
     21 N1         14.5643   15.0100   27.9267 N.4     1  lig        -0.8252
     22 O1         12.9991   15.2308   31.0999 O.co2   1  lig        -0.7573
     23 O2         15.1292   15.2827   30.6387 O.co2   1  lig        -0.7573
     24 O3          8.7601   11.9987   25.6572 O.3     1  lig        -0.4913
@<TRIPOS>BOND
     1     1    12    1
     2     2    13    1
     3     3    14    1
     4     4    15    1
     5     5    19    1
     6     6    19    1
     7     7    20    1
     8     8    21    1
     9     9    21    1
    10    10    21    1
    11    11    24    1
    12    12    14   ar
    13    12    16   ar
    14    13    15   ar
    15    13    16   ar
    16    14    17   ar
    17    15    17   ar
    18    16    19    1
    19    17    24    1
    20    18    20    1
    21    18    22    1
    22    18    23    1
    23    19    20    1
    24    20    21    1
@<TRIPOS>SUBSTRUCTURE
     1 lig         1 TEMP              0 ****  ****    0 ROOT


########## Name:		ligand
########## HA_RMSDs:		12.1687
########## HA_RMSDh:		12.1191
########## HA_RMSDm:		10.2839
########## Cluster Size:	1
##########    Grid Score:          -14.478542
##########      Grid_vdw:          -15.466839
##########       Grid_es:            0.988296
##########    Int_energy:            3.387791

@<TRIPOS>MOLECULE
ligand
 24 24 1 0 0
SMALL
No Charge or Current Charge


@<TRIPOS>ATOM
      1 H1          9.7203   11.4610   22.7292 H       1  lig         0.1340
      2 H2         12.4261    8.3305   21.6833 H       1  lig         0.1340
      3 H3         11.5808   12.6898   23.7178 H       1  lig         0.1475
      4 H4         14.3007    9.5435   22.7242 H       1  lig         0.1475
      5 H5          9.0526    9.7822   21.2152 H       1  lig         0.0877
      6 H6         10.1223    8.5600   20.6047 H       1  lig         0.0877
      7 H7          9.8643    7.3503   22.8808 H       1  lig         0.0966
      8 H8          8.7001    6.7184   20.8236 H       1  lig         0.4431
      9 H9          7.6666    6.5143   22.1055 H       1  lig         0.4431
     10 H10         7.5103    7.8501   21.1227 H       1  lig         0.4431
     11 H11        14.8316   11.4622   23.6346 H       1  lig         0.4214
     12 C1         10.7169   11.0271   22.7271 C.ar    1  lig        -0.0999
     13 C2         12.2447    9.2972   22.1471 C.ar    1  lig        -0.0999
     14 C3         11.7631   11.7163   23.2759 C.ar    1  lig        -0.1787
     15 C4         13.3013    9.9668   22.7341 C.ar    1  lig        -0.1787
     16 C5         10.9526    9.8099   22.1652 C.ar    1  lig        -0.1394
     17 C6         13.0305   11.1986   23.3181 C.ar    1  lig         0.1292
     18 C7          8.3855    8.6960   23.5508 C.2     1  lig         0.9321
     19 C8          9.8028    9.0487   21.5331 C.3     1  lig        -0.0452
     20 C9          9.1236    8.0088   22.4249 C.3     1  lig        -0.0740
     21 N1          8.2182    7.2260   21.5846 N.4     1  lig        -0.8252
     22 O1          7.7231    9.6730   23.2080 O.co2   1  lig        -0.7573
     23 O2          8.4586    8.3284   24.7584 O.co2   1  lig        -0.7573
     24 O3         13.9565   11.9063   23.8310 O.3     1  lig        -0.4913
@<TRIPOS>BOND
     1     1    12    1
     2     2    13    1
     3     3    14    1
     4     4    15    1
     5     5    19    1
     6     6    19    1
     7     7    20    1
     8     8    21    1
     9     9    21    1
    10    10    21    1
    11    11    24    1
    12    12    14   ar
    13    12    16   ar
    14    13    15   ar
    15    13    16   ar
    16    14    17   ar
    17    15    17   ar
    18    16    19    1
    19    17    24    1
    20    18    20    1
    21    18    22    1
    22    18    23    1
    23    19    20    1
    24    20    21    1
@<TRIPOS>SUBSTRUCTURE
     1 lig         1 TEMP              0 ****  ****    0 ROOT


########## Name:		ligand
########## HA_RMSDs:		16.4804
########## HA_RMSDh:		16.4277
########## HA_RMSDm:		14.6143
########## Cluster Size:	1
##########    Grid Score:          -14.314448
##########      Grid_vdw:          -13.429781
##########       Grid_es:           -0.884668
##########    Int_energy:            2.062864

@<TRIPOS>MOLECULE
ligand
 24 24 1 0 0
SMALL
No Charge or Current Charge


@<TRIPOS>ATOM
      1 H1          6.0737   10.8638   29.1470 H       1  lig         0.1340
      2 H2          9.3197    8.7267   27.3829 H       1  lig         0.1340
      3 H3          4.6087    8.9787   28.6478 H       1  lig         0.1475
      4 H4          7.8349    6.8399   26.8309 H       1  lig         0.1475
      5 H5          8.4000   11.4873   29.5733 H       1  lig         0.0877
      6 H6          9.7310   10.7362   28.7517 H       1  lig         0.0877
      7 H7          8.1133   13.0626   27.9330 H       1  lig         0.0966
      8 H8          7.1870   11.3808   26.4163 H       1  lig         0.4431
      9 H9          8.1703   12.3974   25.5488 H       1  lig         0.4431
     10 H10         8.7232   10.8886   25.9876 H       1  lig         0.4431
     11 H11         5.0131    6.4938   28.3718 H       1  lig         0.4214
     12 C1          6.4706    9.9915   28.6339 C.ar    1  lig        -0.0999
     13 C2          8.2674    8.7788   27.6522 C.ar    1  lig        -0.0999
     14 C3          5.6526    8.9307   28.3576 C.ar    1  lig        -0.1787
     15 C4          7.4413    7.7183   27.3324 C.ar    1  lig        -0.1787
     16 C5          7.7821    9.9224   28.2760 C.ar    1  lig        -0.1394
     17 C6          6.1025    7.8219   27.6912 C.ar    1  lig         0.1292
     18 C7         10.1271   12.7369   27.3985 C.2     1  lig         0.9321
     19 C8          8.7021   11.0842   28.5996 C.3     1  lig        -0.0452
     20 C9          8.7168   12.2246   27.5810 C.3     1  lig        -0.0740
     21 N1          8.1634   11.7096   26.3292 N.4     1  lig        -0.8252
     22 O1         10.6875   12.3419   26.3784 O.co2   1  lig        -0.7573
     23 O2         10.7099   13.4856   28.2343 O.co2   1  lig        -0.7573
     24 O3          5.2856    6.8673   27.4841 O.3     1  lig        -0.4913
@<TRIPOS>BOND
     1     1    12    1
     2     2    13    1
     3     3    14    1
     4     4    15    1
     5     5    19    1
     6     6    19    1
     7     7    20    1
     8     8    21    1
     9     9    21    1
    10    10    21    1
    11    11    24    1
    12    12    14   ar
    13    12    16   ar
    14    13    15   ar
    15    13    16   ar
    16    14    17   ar
    17    15    17   ar
    18    16    19    1
    19    17    24    1
    20    18    20    1
    21    18    22    1
    22    18    23    1
    23    19    20    1
    24    20    21    1
@<TRIPOS>SUBSTRUCTURE
     1 lig         1 TEMP              0 ****  ****    0 ROOT


########## Name:		ligand
########## HA_RMSDs:		12.9437
########## HA_RMSDh:		12.8368
########## HA_RMSDm:		10.8200
########## Cluster Size:	1
##########    Grid Score:          -14.286248
##########      Grid_vdw:          -13.709039
##########       Grid_es:           -0.577210
##########    Int_energy:            7.849171

@<TRIPOS>MOLECULE
ligand
 24 24 1 0 0
SMALL
No Charge or Current Charge


@<TRIPOS>ATOM
      1 H1          9.7965    9.1556   22.2469 H       1  lig         0.1340
      2 H2         13.8448    8.6106   23.4837 H       1  lig         0.1340
      3 H3          9.3284    6.8492   22.8873 H       1  lig         0.1475
      4 H4         13.3911    6.2653   24.0860 H       1  lig         0.1475
      5 H5         13.1314   10.4820   21.9410 H       1  lig         0.0877
      6 H6         11.4519   10.8074   21.6510 H       1  lig         0.0877
      7 H7         12.8486   12.2745   23.3814 H       1  lig         0.0966
      8 H8         13.4816   10.3392   24.7382 H       1  lig         0.4431
      9 H9         12.5193   11.3376   25.6494 H       1  lig         0.4431
     10 H10        11.8754    9.9550   24.9800 H       1  lig         0.4431
     11 H11        10.7251    5.2343   24.7864 H       1  lig         0.4214
     12 C1         10.5940    8.5317   22.6424 C.ar    1  lig        -0.0999
     13 C2         12.8443    8.2077   23.3450 C.ar    1  lig        -0.0999
     14 C3         10.3330    7.2396   23.0074 C.ar    1  lig        -0.1787
     15 C4         12.6015    6.8892   23.6795 C.ar    1  lig        -0.1787
     16 C5         11.8543    9.0198   22.8039 C.ar    1  lig        -0.1394
     17 C6         11.3113    6.4094   23.4867 C.ar    1  lig         0.1292
     18 C7         10.7741   12.0895   23.7118 C.2     1  lig         0.9321
     19 C8         12.1475   10.4588   22.4239 C.3     1  lig        -0.0452
     20 C9         12.1436   11.4647   23.5755 C.3     1  lig        -0.0740
     21 N1         12.5346   10.7509   24.7905 N.4     1  lig        -0.8252
     22 O1          9.8612   11.4372   23.2100 O.co2   1  lig        -0.7573
     23 O2         10.5705   13.2079   24.2656 O.co2   1  lig        -0.7573
     24 O3         10.9888    5.2238   23.8210 O.3     1  lig        -0.4913
@<TRIPOS>BOND
     1     1    12    1
     2     2    13    1
     3     3    14    1
     4     4    15    1
     5     5    19    1
     6     6    19    1
     7     7    20    1
     8     8    21    1
     9     9    21    1
    10    10    21    1
    11    11    24    1
    12    12    14   ar
    13    12    16   ar
    14    13    15   ar
    15    13    16   ar
    16    14    17   ar
    17    15    17   ar
    18    16    19    1
    19    17    24    1
    20    18    20    1
    21    18    22    1
    22    18    23    1
    23    19    20    1
    24    20    21    1
@<TRIPOS>SUBSTRUCTURE
     1 lig         1 TEMP              0 ****  ****    0 ROOT


########## Name:		ligand
########## HA_RMSDs:		13.6212
########## HA_RMSDh:		13.5615
########## HA_RMSDm:		10.9618
########## Cluster Size:	1
##########    Grid Score:          -14.270501
##########      Grid_vdw:          -16.377834
##########       Grid_es:            2.107333
##########    Int_energy:            1.222730

@<TRIPOS>MOLECULE
ligand
 24 24 1 0 0
SMALL
No Charge or Current Charge


@<TRIPOS>ATOM
      1 H1          9.6146    9.2250   25.7956 H       1  lig         0.1340
      2 H2         11.7231   12.8876   25.1992 H       1  lig         0.1340
      3 H3          9.7181    8.8162   23.3933 H       1  lig         0.1475
      4 H4         11.7873   12.5053   22.7663 H       1  lig         0.1475
      5 H5         10.3463   10.3948   27.6294 H       1  lig         0.0877
      6 H6         11.5918   11.5981   27.5227 H       1  lig         0.0877
      7 H7          9.4344   13.1463   26.8173 H       1  lig         0.0966
      8 H8         11.0778   13.5394   28.5869 H       1  lig         0.4431
      9 H9          9.5583   13.7860   29.2060 H       1  lig         0.4431
     10 H10        10.3661   12.3679   29.5392 H       1  lig         0.4431
     11 H11        10.6431    9.3454   21.6034 H       1  lig         0.4214
     12 C1         10.0876    9.9543   25.1428 C.ar    1  lig        -0.0999
     13 C2         11.2704   11.9884   24.7879 C.ar    1  lig        -0.0999
     14 C3         10.1519    9.7250   23.7960 C.ar    1  lig        -0.1787
     15 C4         11.3058   11.7862   23.4214 C.ar    1  lig        -0.1787
     16 C5         10.6419   11.0919   25.6444 C.ar    1  lig        -0.1394
     17 C6         10.7156   10.6266   22.9326 C.ar    1  lig         0.1292
     18 C7          8.2697   11.7750   27.9173 C.2     1  lig         0.9321
     19 C8         10.5963   11.3432   27.1396 C.3     1  lig        -0.0452
     20 C9          9.6050   12.4105   27.6046 C.3     1  lig        -0.0740
     21 N1         10.1779   13.0679   28.7786 N.4     1  lig        -0.8252
     22 O1          7.4448   11.8429   27.0086 O.co2   1  lig        -0.7573
     23 O2          7.9957   11.2412   29.0303 O.co2   1  lig        -0.7573
     24 O3         10.7529   10.3361   21.6935 O.3     1  lig        -0.4913
@<TRIPOS>BOND
     1     1    12    1
     2     2    13    1
     3     3    14    1
     4     4    15    1
     5     5    19    1
     6     6    19    1
     7     7    20    1
     8     8    21    1
     9     9    21    1
    10    10    21    1
    11    11    24    1
    12    12    14   ar
    13    12    16   ar
    14    13    15   ar
    15    13    16   ar
    16    14    17   ar
    17    15    17   ar
    18    16    19    1
    19    17    24    1
    20    18    20    1
    21    18    22    1
    22    18    23    1
    23    19    20    1
    24    20    21    1
@<TRIPOS>SUBSTRUCTURE
     1 lig         1 TEMP              0 ****  ****    0 ROOT


########## Name:		ligand
########## HA_RMSDs:		12.7669
########## HA_RMSDh:		12.6852
########## HA_RMSDm:		10.1831
########## Cluster Size:	1
##########    Grid Score:          -14.234025
##########      Grid_vdw:          -14.941753
##########       Grid_es:            0.707728
##########    Int_energy:            1.661791

@<TRIPOS>MOLECULE
ligand
 24 24 1 0 0
SMALL
No Charge or Current Charge


@<TRIPOS>ATOM
      1 H1         10.0911   11.8245   25.8756 H       1  lig         0.1340
      2 H2         14.3342   11.4326   25.6345 H       1  lig         0.1340
      3 H3          9.9725   11.6421   23.4463 H       1  lig         0.1475
      4 H4         14.2260   11.2979   23.1770 H       1  lig         0.1475
      5 H5         12.0126   10.7829   27.8269 H       1  lig         0.0877
      6 H6         13.3364   11.9016   27.7445 H       1  lig         0.0877
      7 H7         10.4035   12.7741   27.6928 H       1  lig         0.0966
      8 H8         12.0186   14.3173   26.6946 H       1  lig         0.4431
      9 H9         11.5058   14.9450   28.1424 H       1  lig         0.4431
     10 H10        12.9945   14.2043   28.0440 H       1  lig         0.4431
     11 H11        11.0630   11.8199   21.6444 H       1  lig         0.4214
     12 C1         11.0044   11.7159   25.2962 C.ar    1  lig        -0.0999
     13 C2         13.3679   11.4883   25.1387 C.ar    1  lig        -0.0999
     14 C3         10.9404   11.6079   23.9342 C.ar    1  lig        -0.1787
     15 C4         13.3182   11.4184   23.7596 C.ar    1  lig        -0.1787
     16 C5         12.2209   11.6629   25.9045 C.ar    1  lig        -0.1394
     17 C6         12.0658   11.4946   23.1617 C.ar    1  lig         0.1292
     18 C7         11.3770   12.6331   29.5581 C.2     1  lig         0.9321
     19 C8         12.2998   11.7580   27.4164 C.3     1  lig        -0.0452
     20 C9         11.4285   12.8365   28.0612 C.3     1  lig        -0.0740
     21 N1         11.9998   14.1367   27.7125 N.4     1  lig        -0.8252
     22 O1         10.4994   11.8622   29.9404 O.co2   1  lig        -0.7573
     23 O2         12.1459   13.2255   30.3685 O.co2   1  lig        -0.7573
     24 O3         11.9258   11.3824   21.9011 O.3     1  lig        -0.4913
@<TRIPOS>BOND
     1     1    12    1
     2     2    13    1
     3     3    14    1
     4     4    15    1
     5     5    19    1
     6     6    19    1
     7     7    20    1
     8     8    21    1
     9     9    21    1
    10    10    21    1
    11    11    24    1
    12    12    14   ar
    13    12    16   ar
    14    13    15   ar
    15    13    16   ar
    16    14    17   ar
    17    15    17   ar
    18    16    19    1
    19    17    24    1
    20    18    20    1
    21    18    22    1
    22    18    23    1
    23    19    20    1
    24    20    21    1
@<TRIPOS>SUBSTRUCTURE
     1 lig         1 TEMP              0 ****  ****    0 ROOT


########## Name:		ligand
########## HA_RMSDs:		14.8020
########## HA_RMSDh:		14.7178
########## HA_RMSDm:		12.9796
########## Cluster Size:	1
##########    Grid Score:          -14.186323
##########      Grid_vdw:          -14.350772
##########       Grid_es:            0.164449
##########    Int_energy:            3.868583

@<TRIPOS>MOLECULE
ligand
 24 24 1 0 0
SMALL
No Charge or Current Charge


@<TRIPOS>ATOM
      1 H1          9.3395    9.3512   22.5107 H       1  lig         0.1340
      2 H2          8.0174    8.6731   26.5116 H       1  lig         0.1340
      3 H3          7.1776    8.5640   21.7013 H       1  lig         0.1475
      4 H4          5.8499    7.8299   25.6991 H       1  lig         0.1475
      5 H5         10.5304    8.8195   25.8024 H       1  lig         0.0877
      6 H6         10.9078    9.5400   24.2698 H       1  lig         0.0877
      7 H7         11.1090   11.4210   25.5993 H       1  lig         0.0966
      8 H8         10.5541   10.1837   27.6360 H       1  lig         0.4431
      9 H9          9.7682   11.6446   27.6688 H       1  lig         0.4431
     10 H10         8.9280   10.2633   27.2682 H       1  lig         0.4431
     11 H11         4.6951    7.4653   23.8833 H       1  lig         0.4214
     12 C1          8.5866    9.0150   23.2190 C.ar    1  lig        -0.0999
     13 C2          7.8259    8.6363   25.4418 C.ar    1  lig        -0.0999
     14 C3          7.3714    8.5782   22.7682 C.ar    1  lig        -0.1787
     15 C4          6.6097    8.1556   24.9957 C.ar    1  lig        -0.1787
     16 C5          8.8216    9.0398   24.5596 C.ar    1  lig        -0.1394
     17 C6          6.4021    8.1222   23.6218 C.ar    1  lig         0.1292
     18 C7          9.1124   11.8057   25.0401 C.2     1  lig         0.9321
     19 C8         10.1577    9.5450   25.0699 C.3     1  lig        -0.0452
     20 C9         10.1418   10.9301   25.7173 C.3     1  lig        -0.0740
     21 N1          9.8485   10.7530   27.1390 N.4     1  lig        -0.8252
     22 O1          8.0024   11.7930   25.5678 O.co2   1  lig        -0.7573
     23 O2          9.3483   12.4779   23.9955 O.co2   1  lig        -0.7573
     24 O3          5.2897    7.7466   23.1290 O.3     1  lig        -0.4913
@<TRIPOS>BOND
     1     1    12    1
     2     2    13    1
     3     3    14    1
     4     4    15    1
     5     5    19    1
     6     6    19    1
     7     7    20    1
     8     8    21    1
     9     9    21    1
    10    10    21    1
    11    11    24    1
    12    12    14   ar
    13    12    16   ar
    14    13    15   ar
    15    13    16   ar
    16    14    17   ar
    17    15    17   ar
    18    16    19    1
    19    17    24    1
    20    18    20    1
    21    18    22    1
    22    18    23    1
    23    19    20    1
    24    20    21    1
@<TRIPOS>SUBSTRUCTURE
     1 lig         1 TEMP              0 ****  ****    0 ROOT


########## Name:		ligand
########## HA_RMSDs:		12.4755
########## HA_RMSDh:		12.4065
########## HA_RMSDm:		10.6821
########## Cluster Size:	1
##########    Grid Score:          -14.134779
##########      Grid_vdw:          -14.568106
##########       Grid_es:            0.433326
##########    Int_energy:            5.426569

@<TRIPOS>MOLECULE
ligand
 24 24 1 0 0
SMALL
No Charge or Current Charge


@<TRIPOS>ATOM
      1 H1         13.6271   18.1573   28.8488 H       1  lig         0.1340
      2 H2         16.8707   15.4417   29.4142 H       1  lig         0.1340
      3 H3         13.9233   18.9320   31.1424 H       1  lig         0.1475
      4 H4         17.1431   16.1841   31.7474 H       1  lig         0.1475
      5 H5         14.4073   16.9864   27.0469 H       1  lig         0.0877
      6 H6         16.0017   16.3023   27.0262 H       1  lig         0.0877
      7 H7         14.4402   14.5780   26.3400 H       1  lig         0.0966
      8 H8         12.4690   15.5737   27.3933 H       1  lig         0.4431
      9 H9         12.5865   13.9895   27.8722 H       1  lig         0.4431
     10 H10        13.0636   15.2033   28.9083 H       1  lig         0.4431
     11 H11        16.1197   17.4037   33.3245 H       1  lig         0.4214
     12 C1         14.3965   17.7125   29.4747 C.ar    1  lig        -0.0999
     13 C2         16.2123   16.2114   29.8099 C.ar    1  lig        -0.0999
     14 C3         14.5684   18.1488   30.7595 C.ar    1  lig        -0.1787
     15 C4         16.3687   16.6164   31.1217 C.ar    1  lig        -0.1787
     16 C5         15.2149   16.7358   28.9959 C.ar    1  lig        -0.1394
     17 C6         15.5078   17.6009   31.5923 C.ar    1  lig         0.1292
     18 C7         15.2846   13.8478   28.1291 C.2     1  lig         0.9321
     19 C8         15.0471   16.2622   27.5647 C.3     1  lig        -0.0452
     20 C9         14.4461   14.8669   27.3920 C.3     1  lig        -0.0740
     21 N1         13.0755   14.9072   27.9002 N.4     1  lig        -0.8252
     22 O1         16.1883   13.3491   27.4619 O.co2   1  lig        -0.7573
     23 O2         15.0672   13.5008   29.3254 O.co2   1  lig        -0.7573
     24 O3         15.6197   18.0706   32.7705 O.3     1  lig        -0.4913
@<TRIPOS>BOND
     1     1    12    1
     2     2    13    1
     3     3    14    1
     4     4    15    1
     5     5    19    1
     6     6    19    1
     7     7    20    1
     8     8    21    1
     9     9    21    1
    10    10    21    1
    11    11    24    1
    12    12    14   ar
    13    12    16   ar
    14    13    15   ar
    15    13    16   ar
    16    14    17   ar
    17    15    17   ar
    18    16    19    1
    19    17    24    1
    20    18    20    1
    21    18    22    1
    22    18    23    1
    23    19    20    1
    24    20    21    1
@<TRIPOS>SUBSTRUCTURE
     1 lig         1 TEMP              0 ****  ****    0 ROOT


########## Name:		ligand
########## HA_RMSDs:		14.9063
########## HA_RMSDh:		14.8082
########## HA_RMSDm:		13.2625
########## Cluster Size:	1
##########    Grid Score:          -14.094277
##########      Grid_vdw:          -13.661983
##########       Grid_es:           -0.432294
##########    Int_energy:            4.020078

@<TRIPOS>MOLECULE
ligand
 24 24 1 0 0
SMALL
No Charge or Current Charge


@<TRIPOS>ATOM
      1 H1          6.2186    9.0870   23.4558 H       1  lig         0.1340
      2 H2          9.6018    6.5303   23.9387 H       1  lig         0.1340
      3 H3          5.4721    7.6888   21.6020 H       1  lig         0.1475
      4 H4          8.8799    5.1427   22.0354 H       1  lig         0.1475
      5 H5          7.5354    9.1846   25.4411 H       1  lig         0.0877
      6 H6          8.8935    8.1470   25.7403 H       1  lig         0.0877
      7 H7         10.2116    9.9474   25.3172 H       1  lig         0.0966
      8 H8          8.2293   11.3498   25.6175 H       1  lig         0.4431
      9 H9          9.1649   12.0002   24.4115 H       1  lig         0.4431
     10 H10         7.8017   11.1268   24.0196 H       1  lig         0.4431
     11 H11         5.8502    5.1857   21.0511 H       1  lig         0.4214
     12 C1          6.8139    8.2300   23.1509 C.ar    1  lig        -0.0999
     13 C2          8.6887    6.7869   23.4068 C.ar    1  lig        -0.0999
     14 C3          6.3948    7.4411   22.1152 C.ar    1  lig        -0.1787
     15 C4          8.2957    6.0064   22.3364 C.ar    1  lig        -0.1787
     16 C5          7.9678    7.9094   23.7978 C.ar    1  lig        -0.1394
     17 C6          7.1244    6.3664   21.6805 C.ar    1  lig         0.1292
     18 C7          9.9696    9.6890   23.2383 C.2     1  lig         0.9321
     19 C8          8.4281    8.7649   24.9628 C.3     1  lig        -0.0452
     20 C9          9.3797    9.9093   24.6124 C.3     1  lig        -0.0740
     21 N1          8.6188   11.1564   24.6795 N.4     1  lig        -0.8252
     22 O1          9.3326   10.1995   22.3195 O.co2   1  lig        -0.7573
     23 O2         11.0153    9.0094   23.0299 O.co2   1  lig        -0.7573
     24 O3          6.6617    5.6693   20.7206 O.3     1  lig        -0.4913
@<TRIPOS>BOND
     1     1    12    1
     2     2    13    1
     3     3    14    1
     4     4    15    1
     5     5    19    1
     6     6    19    1
     7     7    20    1
     8     8    21    1
     9     9    21    1
    10    10    21    1
    11    11    24    1
    12    12    14   ar
    13    12    16   ar
    14    13    15   ar
    15    13    16   ar
    16    14    17   ar
    17    15    17   ar
    18    16    19    1
    19    17    24    1
    20    18    20    1
    21    18    22    1
    22    18    23    1
    23    19    20    1
    24    20    21    1
@<TRIPOS>SUBSTRUCTURE
     1 lig         1 TEMP              0 ****  ****    0 ROOT


########## Name:		ligand
########## HA_RMSDs:		14.0316
########## HA_RMSDh:		13.9500
########## HA_RMSDm:		11.9434
########## Cluster Size:	1
##########    Grid Score:          -14.087204
##########      Grid_vdw:          -12.420714
##########       Grid_es:           -1.666489
##########    Int_energy:            9.367836

@<TRIPOS>MOLECULE
ligand
 24 24 1 0 0
SMALL
No Charge or Current Charge


@<TRIPOS>ATOM
      1 H1          7.2741   10.1586   26.4413 H       1  lig         0.1340
      2 H2         10.9805    9.4142   24.4604 H       1  lig         0.1340
      3 H3          8.1021    8.9259   28.3762 H       1  lig         0.1475
      4 H4         11.8041    8.1254   26.3917 H       1  lig         0.1475
      5 H5          8.1756    9.9026   23.3943 H       1  lig         0.0877
      6 H6          7.6958   11.2382   24.3925 H       1  lig         0.0877
      7 H7          9.1019   12.3013   22.8565 H       1  lig         0.0966
      8 H8          9.8102   10.2148   21.7927 H       1  lig         0.4431
      9 H9         11.1454   11.1691   22.0364 H       1  lig         0.4431
     10 H10        10.8442    9.8921   23.0625 H       1  lig         0.4431
     11 H11        11.0849    7.1969   28.3090 H       1  lig         0.4214
     12 C1          8.2653    9.7131   26.4150 C.ar    1  lig        -0.0999
     13 C2         10.3422    9.2924   25.3324 C.ar    1  lig        -0.0999
     14 C3          8.7342    9.0260   27.5007 C.ar    1  lig        -0.1787
     15 C4         10.8106    8.5622   26.4079 C.ar    1  lig        -0.1787
     16 C5          9.0662    9.8438   25.3222 C.ar    1  lig        -0.1394
     17 C6          9.9660    8.4270   27.5035 C.ar    1  lig         0.1292
     18 C7         10.4699   12.1922   24.4577 C.2     1  lig         0.9321
     19 C8          8.5636   10.6244   24.1225 C.3     1  lig        -0.0452
     20 C9          9.5954   11.5139   23.4282 C.3     1  lig        -0.0740
     21 N1         10.3782   10.6676   22.5284 N.4     1  lig        -0.8252
     22 O1          9.8790   12.5551   25.4725 O.co2   1  lig        -0.7573
     23 O2         11.7048   12.4063   24.2905 O.co2   1  lig        -0.7573
     24 O3         10.3405    7.8181   28.5572 O.3     1  lig        -0.4913
@<TRIPOS>BOND
     1     1    12    1
     2     2    13    1
     3     3    14    1
     4     4    15    1
     5     5    19    1
     6     6    19    1
     7     7    20    1
     8     8    21    1
     9     9    21    1
    10    10    21    1
    11    11    24    1
    12    12    14   ar
    13    12    16   ar
    14    13    15   ar
    15    13    16   ar
    16    14    17   ar
    17    15    17   ar
    18    16    19    1
    19    17    24    1
    20    18    20    1
    21    18    22    1
    22    18    23    1
    23    19    20    1
    24    20    21    1
@<TRIPOS>SUBSTRUCTURE
     1 lig         1 TEMP              0 ****  ****    0 ROOT


########## Name:		ligand
########## HA_RMSDs:		11.3971
########## HA_RMSDh:		11.2648
########## HA_RMSDm:		8.6116
########## Cluster Size:	1
##########    Grid Score:          -14.056551
##########      Grid_vdw:           -9.353235
##########       Grid_es:           -4.703316
##########    Int_energy:            1.428306

@<TRIPOS>MOLECULE
ligand
 24 24 1 0 0
SMALL
No Charge or Current Charge


@<TRIPOS>ATOM
      1 H1         20.0491   11.1623   23.6756 H       1  lig         0.1340
      2 H2         16.9179   10.2242   26.4199 H       1  lig         0.1340
      3 H3         20.5887    8.7879   23.5355 H       1  lig         0.1475
      4 H4         17.4897    7.8299   26.3216 H       1  lig         0.1475
      5 H5         18.3747   12.6693   26.1559 H       1  lig         0.0877
      6 H6         18.7489   12.9057   24.4782 H       1  lig         0.0877
      7 H7         15.9929   11.8664   25.2142 H       1  lig         0.0966
      8 H8         16.7301   12.0000   22.8850 H       1  lig         0.4431
      9 H9         15.5479   13.1368   23.1363 H       1  lig         0.4431
     10 H10        17.1459   13.6040   23.0851 H       1  lig         0.4431
     11 H11        20.0162    6.6895   25.5595 H       1  lig         0.4214
     12 C1         19.4850   10.4439   24.2649 C.ar    1  lig        -0.0999
     13 C2         17.7401    9.8971   25.7877 C.ar    1  lig        -0.0999
     14 C3         19.7819    9.1112   24.1841 C.ar    1  lig        -0.1787
     15 C4         18.0573    8.5529   25.7444 C.ar    1  lig        -0.1787
     16 C5         18.4654   10.8436   25.0733 C.ar    1  lig        -0.1394
     17 C6         19.1150    8.1731   24.9266 C.ar    1  lig         0.1292
     18 C7         16.2650   13.9146   25.6356 C.2     1  lig         0.9321
     19 C8         18.1136   12.3171   25.1511 C.3     1  lig        -0.0452
     20 C9         16.6512   12.6672   24.8743 C.3     1  lig        -0.0740
     21 N1         16.5030   12.8483   23.4307 N.4     1  lig        -0.8252
     22 O1         15.9855   13.7273   26.8177 O.co2   1  lig        -0.7573
     23 O2         16.1981   15.0610   25.1063 O.co2   1  lig        -0.7573
     24 O3         19.4369    6.9492   24.7858 O.3     1  lig        -0.4913
@<TRIPOS>BOND
     1     1    12    1
     2     2    13    1
     3     3    14    1
     4     4    15    1
     5     5    19    1
     6     6    19    1
     7     7    20    1
     8     8    21    1
     9     9    21    1
    10    10    21    1
    11    11    24    1
    12    12    14   ar
    13    12    16   ar
    14    13    15   ar
    15    13    16   ar
    16    14    17   ar
    17    15    17   ar
    18    16    19    1
    19    17    24    1
    20    18    20    1
    21    18    22    1
    22    18    23    1
    23    19    20    1
    24    20    21    1
@<TRIPOS>SUBSTRUCTURE
     1 lig         1 TEMP              0 ****  ****    0 ROOT


########## Name:		ligand
########## HA_RMSDs:		14.6475
########## HA_RMSDh:		14.5813
########## HA_RMSDm:		12.9846
########## Cluster Size:	1
##########    Grid Score:          -13.989162
##########      Grid_vdw:           -9.400607
##########       Grid_es:           -4.588555
##########    Int_energy:            2.815865

@<TRIPOS>MOLECULE
ligand
 24 24 1 0 0
SMALL
No Charge or Current Charge


@<TRIPOS>ATOM
      1 H1         22.5873    3.5461   14.6289 H       1  lig         0.1340
      2 H2         25.2365    5.3663   17.4368 H       1  lig         0.1340
      3 H3         22.8905    5.4647   13.1539 H       1  lig         0.1475
      4 H4         25.5081    7.3299   15.9740 H       1  lig         0.1475
      5 H5         23.2488    2.3429   16.4597 H       1  lig         0.0877
      6 H6         24.6786    2.7498   17.3545 H       1  lig         0.0877
      7 H7         22.3196    2.4714   18.5745 H       1  lig         0.0966
      8 H8         21.2552    4.2085   17.2195 H       1  lig         0.4431
      9 H9         21.2969    4.7150   18.7990 H       1  lig         0.4431
     10 H10        22.3991    5.3217   17.7074 H       1  lig         0.4431
     11 H11        23.8529    7.2084   12.7855 H       1  lig         0.4214
     12 C1         23.2246    4.3707   14.9382 C.ar    1  lig        -0.0999
     13 C2         24.7101    5.4006   16.4859 C.ar    1  lig        -0.0999
     14 C3         23.4007    5.4453   14.1107 C.ar    1  lig        -0.1787
     15 C4         24.8636    6.5092   15.6755 C.ar    1  lig        -0.1787
     16 C5         23.8745    4.3468   16.1340 C.ar    1  lig        -0.1394
     17 C6         24.1739    6.5177   14.4688 C.ar    1  lig         0.1292
     18 C7         23.7431    3.7468   19.4655 C.2     1  lig         0.9321
     19 C8         23.7039    3.1483   17.0479 C.3     1  lig        -0.0452
     20 C9         22.8551    3.3809   18.2983 C.3     1  lig        -0.0740
     21 N1         21.8979    4.4439   17.9943 N.4     1  lig        -0.8252
     22 O1         24.2784    2.7902   20.0214 O.co2   1  lig        -0.7573
     23 O2         23.9073    4.9332   19.8708 O.co2   1  lig        -0.7573
     24 O3         24.3034    7.4745   13.6387 O.3     1  lig        -0.4913
@<TRIPOS>BOND
     1     1    12    1
     2     2    13    1
     3     3    14    1
     4     4    15    1
     5     5    19    1
     6     6    19    1
     7     7    20    1
     8     8    21    1
     9     9    21    1
    10    10    21    1
    11    11    24    1
    12    12    14   ar
    13    12    16   ar
    14    13    15   ar
    15    13    16   ar
    16    14    17   ar
    17    15    17   ar
    18    16    19    1
    19    17    24    1
    20    18    20    1
    21    18    22    1
    22    18    23    1
    23    19    20    1
    24    20    21    1
@<TRIPOS>SUBSTRUCTURE
     1 lig         1 TEMP              0 ****  ****    0 ROOT


########## Name:		ligand
########## HA_RMSDs:		10.9077
########## HA_RMSDh:		10.8629
########## HA_RMSDm:		9.0097
########## Cluster Size:	1
##########    Grid Score:          -13.940820
##########      Grid_vdw:           -8.610048
##########       Grid_es:           -5.330771
##########    Int_energy:            1.633172

@<TRIPOS>MOLECULE
ligand
 24 24 1 0 0
SMALL
No Charge or Current Charge


@<TRIPOS>ATOM
      1 H1         21.2087   10.9709   27.6986 H       1  lig         0.1340
      2 H2         19.4747   12.3821   24.0630 H       1  lig         0.1340
      3 H3         19.7566   12.4888   28.9380 H       1  lig         0.1475
      4 H4         18.0406   13.9533   25.3056 H       1  lig         0.1475
      5 H5         21.4860    9.7507   25.6462 H       1  lig         0.0877
      6 H6         20.8238   10.2758   24.1307 H       1  lig         0.0877
      7 H7         23.2517   11.5495   25.4929 H       1  lig         0.0966
      8 H8         21.9425   13.0773   24.1005 H       1  lig         0.4431
      9 H9         23.3558   12.7144   23.3106 H       1  lig         0.4431
     10 H10        21.9380   11.9706   22.8510 H       1  lig         0.4431
     11 H11        17.2229   14.1787   27.4655 H       1  lig         0.4214
     12 C1         20.5241   11.6230   27.1621 C.ar    1  lig        -0.0999
     13 C2         19.5382   12.4191   25.1480 C.ar    1  lig        -0.0999
     14 C3         19.7048   12.4713   27.8549 C.ar    1  lig        -0.1787
     15 C4         18.7345   13.3084   25.8354 C.ar    1  lig        -0.1787
     16 C5         20.4486   11.5981   25.8033 C.ar    1  lig        -0.1394
     17 C6         18.8448   13.3282   27.2208 C.ar    1  lig         0.1292
     18 C7         23.5349   10.0939   23.9936 C.2     1  lig         0.9321
     19 C8         21.3365   10.6436   25.0278 C.3     1  lig        -0.0452
     20 C9         22.7047   11.1909   24.6197 C.3     1  lig        -0.0740
     21 N1         22.4814   12.2967   23.6891 N.4     1  lig        -0.8252
     22 O1         24.0447    9.3156   24.7967 O.co2   1  lig        -0.7573
     23 O2         23.7265    9.9898   22.7481 O.co2   1  lig        -0.7573
     24 O3         18.1016   14.0771   27.9337 O.3     1  lig        -0.4913
@<TRIPOS>BOND
     1     1    12    1
     2     2    13    1
     3     3    14    1
     4     4    15    1
     5     5    19    1
     6     6    19    1
     7     7    20    1
     8     8    21    1
     9     9    21    1
    10    10    21    1
    11    11    24    1
    12    12    14   ar
    13    12    16   ar
    14    13    15   ar
    15    13    16   ar
    16    14    17   ar
    17    15    17   ar
    18    16    19    1
    19    17    24    1
    20    18    20    1
    21    18    22    1
    22    18    23    1
    23    19    20    1
    24    20    21    1
@<TRIPOS>SUBSTRUCTURE
     1 lig         1 TEMP              0 ****  ****    0 ROOT


########## Name:		ligand
########## HA_RMSDs:		14.9611
########## HA_RMSDh:		14.9221
########## HA_RMSDm:		12.8708
########## Cluster Size:	1
##########    Grid Score:          -13.918142
##########      Grid_vdw:          -12.019542
##########       Grid_es:           -1.898601
##########    Int_energy:            3.086912

@<TRIPOS>MOLECULE
ligand
 24 24 1 0 0
SMALL
No Charge or Current Charge


@<TRIPOS>ATOM
      1 H1         24.9753    5.1264   12.1356 H       1  lig         0.1340
      2 H2         27.2525    8.0457   14.2588 H       1  lig         0.1340
      3 H3         23.0980    6.6826   12.0819 H       1  lig         0.1475
      4 H4         25.3439    9.6034   14.2518 H       1  lig         0.1475
      5 H5         27.2579    4.8027   12.4272 H       1  lig         0.0877
      6 H6         28.3307    6.0451   12.9896 H       1  lig         0.0877
      7 H7         27.5517    3.6778   14.3709 H       1  lig         0.0966
      8 H8         25.5995    4.9418   15.1313 H       1  lig         0.4431
      9 H9         26.6268    4.7234   16.4158 H       1  lig         0.4431
     10 H10        26.5795    6.1948   15.6366 H       1  lig         0.4431
     11 H11        22.2953    8.4338   12.7540 H       1  lig         0.4214
     12 C1         25.0670    6.1011   12.6082 C.ar    1  lig        -0.0999
     13 C2         26.3206    7.7463   13.7848 C.ar    1  lig        -0.0999
     14 C3         24.0178    6.9777   12.5748 C.ar    1  lig        -0.1787
     15 C4         25.2538    8.6244   13.7919 C.ar    1  lig        -0.1787
     16 C5         26.2225    6.4799   13.2200 C.ar    1  lig        -0.1394
     17 C6         24.0791    8.2060   13.1779 C.ar    1  lig         0.1292
     18 C7         28.9813    5.0434   15.1045 C.2     1  lig         0.9321
     19 C8         27.3995    5.5232   13.2413 C.3     1  lig        -0.0452
     20 C9         27.6071    4.7533   14.5459 C.3     1  lig        -0.0740
     21 N1         26.5511    5.1573   15.4734 N.4     1  lig        -0.8252
     22 O1         29.1353    6.1915   15.5153 O.co2   1  lig        -0.7573
     23 O2         29.9184    4.1947   15.1252 O.co2   1  lig        -0.7573
     24 O3         23.0674    8.9743   13.0907 O.3     1  lig        -0.4913
@<TRIPOS>BOND
     1     1    12    1
     2     2    13    1
     3     3    14    1
     4     4    15    1
     5     5    19    1
     6     6    19    1
     7     7    20    1
     8     8    21    1
     9     9    21    1
    10    10    21    1
    11    11    24    1
    12    12    14   ar
    13    12    16   ar
    14    13    15   ar
    15    13    16   ar
    16    14    17   ar
    17    15    17   ar
    18    16    19    1
    19    17    24    1
    20    18    20    1
    21    18    22    1
    22    18    23    1
    23    19    20    1
    24    20    21    1
@<TRIPOS>SUBSTRUCTURE
     1 lig         1 TEMP              0 ****  ****    0 ROOT


########## Name:		ligand
########## HA_RMSDs:		12.1890
########## HA_RMSDh:		12.1514
########## HA_RMSDm:		9.2530
########## Cluster Size:	1
##########    Grid Score:          -13.819067
##########      Grid_vdw:          -13.876060
##########       Grid_es:            0.056993
##########    Int_energy:            1.394237

@<TRIPOS>MOLECULE
ligand
 24 24 1 0 0
SMALL
No Charge or Current Charge


@<TRIPOS>ATOM
      1 H1         16.5771   16.5371   30.8858 H       1  lig         0.1340
      2 H2         16.8851   17.1719   26.6765 H       1  lig         0.1340
      3 H3         14.4628   15.3776   30.5196 H       1  lig         0.1475
      4 H4         14.7258   16.0459   26.3044 H       1  lig         0.1475
      5 H5         18.5870   17.9031   28.0417 H       1  lig         0.0877
      6 H6         18.0236   18.6224   29.5168 H       1  lig         0.0877
      7 H7         18.7788   15.9926   30.2850 H       1  lig         0.0966
      8 H8         19.0656   18.0913   31.5097 H       1  lig         0.4431
      9 H9         20.5370   17.3322   31.4004 H       1  lig         0.4431
     10 H10        20.1920   18.6143   30.3945 H       1  lig         0.4431
     11 H11        13.2189   14.8123   27.3353 H       1  lig         0.4214
     12 C1         16.1799   16.4420   29.8784 C.ar    1  lig        -0.0999
     13 C2         16.3346   16.7782   27.5277 C.ar    1  lig        -0.0999
     14 C3         14.9972   15.7875   29.6696 C.ar    1  lig        -0.1787
     15 C4         15.1213   16.1541   27.3094 C.ar    1  lig        -0.1787
     16 C5         16.8514   16.9465   28.8072 C.ar    1  lig        -0.1394
     17 C6         14.4462   15.6652   28.4216 C.ar    1  lig         0.1292
     18 C7         20.3023   16.3654   28.8754 C.2     1  lig         0.9321
     19 C8         18.1755   17.6531   29.0267 C.3     1  lig        -0.0452
     20 C9         19.2267   16.8674   29.8113 C.3     1  lig        -0.0740
     21 N1         19.7740   17.7568   30.8350 N.4     1  lig        -0.8252
     22 O1         20.2589   15.1588   28.6454 O.co2   1  lig        -0.7573
     23 O2         21.2014   17.1074   28.3857 O.co2   1  lig        -0.7573
     24 O3         13.3500   15.0281   28.3038 O.3     1  lig        -0.4913
@<TRIPOS>BOND
     1     1    12    1
     2     2    13    1
     3     3    14    1
     4     4    15    1
     5     5    19    1
     6     6    19    1
     7     7    20    1
     8     8    21    1
     9     9    21    1
    10    10    21    1
    11    11    24    1
    12    12    14   ar
    13    12    16   ar
    14    13    15   ar
    15    13    16   ar
    16    14    17   ar
    17    15    17   ar
    18    16    19    1
    19    17    24    1
    20    18    20    1
    21    18    22    1
    22    18    23    1
    23    19    20    1
    24    20    21    1
@<TRIPOS>SUBSTRUCTURE
     1 lig         1 TEMP              0 ****  ****    0 ROOT


########## Name:		ligand
########## HA_RMSDs:		12.4214
########## HA_RMSDh:		12.3562
########## HA_RMSDm:		8.4421
########## Cluster Size:	1
##########    Grid Score:          -13.816451
##########      Grid_vdw:          -14.297638
##########       Grid_es:            0.481187
##########    Int_energy:            2.929523

@<TRIPOS>MOLECULE
ligand
 24 24 1 0 0
SMALL
No Charge or Current Charge


@<TRIPOS>ATOM
      1 H1         16.4663   14.2836   28.9972 H       1  lig         0.1340
      2 H2         16.8757   18.5137   28.6050 H       1  lig         0.1340
      3 H3         16.1180   14.1303   26.5880 H       1  lig         0.1475
      4 H4         16.4749   18.3716   26.1784 H       1  lig         0.1475
      5 H5         17.0833   15.4960   30.8272 H       1  lig         0.0877
      6 H6         17.8338   17.0517   30.6629 H       1  lig         0.0877
      7 H7         15.8526   18.2293   31.2498 H       1  lig         0.0966
      8 H8         16.7729   16.9059   33.0907 H       1  lig         0.4431
      9 H9         15.1247   16.9863   33.2635 H       1  lig         0.4431
     10 H10        15.8252   15.6022   32.6569 H       1  lig         0.4431
     11 H11        16.4264   16.8713   24.5253 H       1  lig         0.4214
     12 C1         16.4643   15.1869   28.3925 C.ar    1  lig        -0.0999
     13 C2         16.6965   17.5427   28.1494 C.ar    1  lig        -0.0999
     14 C3         16.2747   15.1033   27.0405 C.ar    1  lig        -0.1787
     15 C4         16.4661   17.4741   26.7887 C.ar    1  lig        -0.1787
     16 C5         16.6699   16.4096   28.9543 C.ar    1  lig        -0.1394
     17 C6         16.2395   16.2162   26.2427 C.ar    1  lig         0.1292
     18 C7         14.4372   16.7876   30.6456 C.2     1  lig         0.9321
     19 C8         16.9047   16.5095   30.4496 C.3     1  lig        -0.0452
     20 C9         15.7723   17.1413   31.2598 C.3     1  lig        -0.0740
     21 N1         15.8813   16.6511   32.6333 N.4     1  lig        -0.8252
     22 O1         13.9881   17.6329   29.8746 O.co2   1  lig        -0.7573
     23 O2         13.8045   15.7271   30.9172 O.co2   1  lig        -0.7573
     24 O3         16.0745   16.0578   24.9901 O.3     1  lig        -0.4913
@<TRIPOS>BOND
     1     1    12    1
     2     2    13    1
     3     3    14    1
     4     4    15    1
     5     5    19    1
     6     6    19    1
     7     7    20    1
     8     8    21    1
     9     9    21    1
    10    10    21    1
    11    11    24    1
    12    12    14   ar
    13    12    16   ar
    14    13    15   ar
    15    13    16   ar
    16    14    17   ar
    17    15    17   ar
    18    16    19    1
    19    17    24    1
    20    18    20    1
    21    18    22    1
    22    18    23    1
    23    19    20    1
    24    20    21    1
@<TRIPOS>SUBSTRUCTURE
     1 lig         1 TEMP              0 ****  ****    0 ROOT


########## Name:		ligand
########## HA_RMSDs:		11.5549
########## HA_RMSDh:		11.5325
########## HA_RMSDm:		9.9181
########## Cluster Size:	1
##########    Grid Score:          -13.792953
##########      Grid_vdw:          -14.609001
##########       Grid_es:            0.816048
##########    Int_energy:            1.885487

@<TRIPOS>MOLECULE
ligand
 24 24 1 0 0
SMALL
No Charge or Current Charge


@<TRIPOS>ATOM
      1 H1         18.1036   16.4353   29.3032 H       1  lig         0.1340
      2 H2         13.9430   16.8608   28.4525 H       1  lig         0.1340
      3 H3         17.7258   17.4615   31.4834 H       1  lig         0.1475
      4 H4         13.5631   17.9433   30.6327 H       1  lig         0.1475
      5 H5         15.4786   16.2886   26.7122 H       1  lig         0.0877
      6 H6         17.2008   16.3200   26.9207 H       1  lig         0.0877
      7 H7         15.4428   14.0209   27.9146 H       1  lig         0.0966
      8 H8         17.6017   14.3117   29.0287 H       1  lig         0.4431
      9 H9         17.6796   12.9690   28.0571 H       1  lig         0.4431
     10 H10        18.3774   14.3951   27.5531 H       1  lig         0.4431
     11 H11        16.4211   18.2642   32.7984 H       1  lig         0.4214
     12 C1         17.1058   16.7667   29.5793 C.ar    1  lig        -0.0999
     13 C2         14.7815   17.0072   29.1293 C.ar    1  lig        -0.0999
     14 C3         16.8901   17.3375   30.8034 C.ar    1  lig        -0.1787
     15 C4         14.5595   17.6213   30.3470 C.ar    1  lig        -0.1787
     16 C5         16.0519   16.6048   28.7333 C.ar    1  lig        -0.1394
     17 C6         15.6556   17.7925   31.1844 C.ar    1  lig         0.1292
     18 C7         16.2310   13.9061   25.9620 C.2     1  lig         0.9321
     19 C8         16.2772   15.9512   27.3831 C.3     1  lig        -0.0452
     20 C9         16.3054   14.4224   27.3807 C.3     1  lig        -0.0740
     21 N1         17.5375   13.9994   28.0451 N.4     1  lig        -0.8252
     22 O1         15.1065   13.5695   25.5977 O.co2   1  lig        -0.7573
     23 O2         17.2399   13.7923   25.2083 O.co2   1  lig        -0.7573
     24 O3         15.5290   18.2980   32.3461 O.3     1  lig        -0.4913
@<TRIPOS>BOND
     1     1    12    1
     2     2    13    1
     3     3    14    1
     4     4    15    1
     5     5    19    1
     6     6    19    1
     7     7    20    1
     8     8    21    1
     9     9    21    1
    10    10    21    1
    11    11    24    1
    12    12    14   ar
    13    12    16   ar
    14    13    15   ar
    15    13    16   ar
    16    14    17   ar
    17    15    17   ar
    18    16    19    1
    19    17    24    1
    20    18    20    1
    21    18    22    1
    22    18    23    1
    23    19    20    1
    24    20    21    1
@<TRIPOS>SUBSTRUCTURE
     1 lig         1 TEMP              0 ****  ****    0 ROOT


########## Name:		ligand
########## HA_RMSDs:		12.7604
########## HA_RMSDh:		12.7117
########## HA_RMSDm:		8.8712
########## Cluster Size:	1
##########    Grid Score:          -13.751148
##########      Grid_vdw:          -14.121202
##########       Grid_es:            0.370054
##########    Int_energy:            1.000912

@<TRIPOS>MOLECULE
ligand
 24 24 1 0 0
SMALL
No Charge or Current Charge


@<TRIPOS>ATOM
      1 H1         15.7360   16.1492   28.8093 H       1  lig         0.1340
      2 H2         14.5455   12.1408   27.9546 H       1  lig         0.1340
      3 H3         16.3668   16.4225   26.4692 H       1  lig         0.1475
      4 H4         15.2271   12.3938   25.6008 H       1  lig         0.1475
      5 H5         14.7475   12.8804   30.2155 H       1  lig         0.0877
      6 H6         15.4527   14.4039   30.6536 H       1  lig         0.0877
      7 H7         12.8988   15.0459   29.5169 H       1  lig         0.0966
      8 H8         14.0954   16.1802   31.3248 H       1  lig         0.4431
      9 H9         12.5880   15.7516   31.8697 H       1  lig         0.4431
     10 H10        13.9145   14.8464   32.3117 H       1  lig         0.4431
     11 H11        16.3299   15.6503   24.5832 H       1  lig         0.4214
     12 C1         15.6253   15.3171   28.1187 C.ar    1  lig        -0.0999
     13 C2         14.9610   13.0876   27.6179 C.ar    1  lig        -0.0999
     14 C3         15.9732   15.4693   26.8047 C.ar    1  lig        -0.1787
     15 C4         15.3465   13.2175   26.2973 C.ar    1  lig        -0.1787
     16 C5         15.1230   14.1217   28.5327 C.ar    1  lig        -0.1394
     17 C6         15.8746   14.4417   25.9044 C.ar    1  lig         0.1292
     18 C7         12.3906   13.3379   30.6445 C.2     1  lig         0.9321
     19 C8         14.7124   13.9511   29.9830 C.3     1  lig        -0.0452
     20 C9         13.3279   14.4866   30.3496 C.3     1  lig        -0.0740
     21 N1         13.4838   15.3668   31.5070 N.4     1  lig        -0.8252
     22 O1         11.6849   12.9967   29.6979 O.co2   1  lig        -0.7573
     23 O2         12.3037   12.7830   31.7773 O.co2   1  lig        -0.7573
     24 O3         16.2024   14.6639   24.6942 O.3     1  lig        -0.4913
@<TRIPOS>BOND
     1     1    12    1
     2     2    13    1
     3     3    14    1
     4     4    15    1
     5     5    19    1
     6     6    19    1
     7     7    20    1
     8     8    21    1
     9     9    21    1
    10    10    21    1
    11    11    24    1
    12    12    14   ar
    13    12    16   ar
    14    13    15   ar
    15    13    16   ar
    16    14    17   ar
    17    15    17   ar
    18    16    19    1
    19    17    24    1
    20    18    20    1
    21    18    22    1
    22    18    23    1
    23    19    20    1
    24    20    21    1
@<TRIPOS>SUBSTRUCTURE
     1 lig         1 TEMP              0 ****  ****    0 ROOT


########## Name:		ligand
########## HA_RMSDs:		12.7047
########## HA_RMSDh:		12.7047
########## HA_RMSDm:		10.4200
########## Cluster Size:	1
##########    Grid Score:          -13.732701
##########      Grid_vdw:          -13.868088
##########       Grid_es:            0.135387
##########    Int_energy:            1.684434

@<TRIPOS>MOLECULE
ligand
 24 24 1 0 0
SMALL
No Charge or Current Charge


@<TRIPOS>ATOM
      1 H1         13.6582   16.0099   31.3179 H       1  lig         0.1340
      2 H2         16.9470   16.6467   28.6733 H       1  lig         0.1340
      3 H3         12.9282   18.2999   30.9033 H       1  lig         0.1475
      4 H4         16.2436   18.9762   28.2889 H       1  lig         0.1475
      5 H5         16.9039   14.7451   30.2235 H       1  lig         0.0877
      6 H6         15.5798   14.4502   31.3053 H       1  lig         0.0877
      7 H7         15.4924   13.9831   28.2811 H       1  lig         0.0966
      8 H8         13.3384   14.5851   29.2734 H       1  lig         0.4431
      9 H9         13.3211   12.9680   28.9020 H       1  lig         0.4431
     10 H10        13.5515   13.4510   30.4794 H       1  lig         0.4431
     11 H11        13.1911   20.0232   29.8746 H       1  lig         0.4214
     12 C1         14.2368   16.6508   30.6574 C.ar    1  lig        -0.0999
     13 C2         16.0589   17.0257   29.1735 C.ar    1  lig        -0.0999
     14 C3         13.8268   17.9336   30.4189 C.ar    1  lig        -0.1787
     15 C4         15.6763   18.3356   28.9567 C.ar    1  lig        -0.1787
     16 C5         15.3600   16.1928   30.0397 C.ar    1  lig        -0.1394
     17 C6         14.5372   18.7846   29.6144 C.ar    1  lig         0.1292
     18 C7         15.8790   12.3726   29.5865 C.2     1  lig         0.9321
     19 C8         15.8092   14.7640   30.2798 C.3     1  lig        -0.0452
     20 C9         15.2512   13.7199   29.3121 C.3     1  lig        -0.0740
     21 N1         13.7995   13.6843   29.4854 N.4     1  lig        -0.8252
     22 O1         16.9093   12.1494   28.9547 O.co2   1  lig        -0.7573
     23 O2         15.3800   11.5191   30.3747 O.co2   1  lig        -0.7573
     24 O3         14.0840   19.9597   29.4269 O.3     1  lig        -0.4913
@<TRIPOS>BOND
     1     1    12    1
     2     2    13    1
     3     3    14    1
     4     4    15    1
     5     5    19    1
     6     6    19    1
     7     7    20    1
     8     8    21    1
     9     9    21    1
    10    10    21    1
    11    11    24    1
    12    12    14   ar
    13    12    16   ar
    14    13    15   ar
    15    13    16   ar
    16    14    17   ar
    17    15    17   ar
    18    16    19    1
    19    17    24    1
    20    18    20    1
    21    18    22    1
    22    18    23    1
    23    19    20    1
    24    20    21    1
@<TRIPOS>SUBSTRUCTURE
     1 lig         1 TEMP              0 ****  ****    0 ROOT


########## Name:		ligand
########## HA_RMSDs:		12.6288
########## HA_RMSDh:		12.5427
########## HA_RMSDm:		10.1575
########## Cluster Size:	1
##########    Grid Score:          -13.724704
##########      Grid_vdw:          -11.809238
##########       Grid_es:           -1.915465
##########    Int_energy:            3.688570

@<TRIPOS>MOLECULE
ligand
 24 24 1 0 0
SMALL
No Charge or Current Charge


@<TRIPOS>ATOM
      1 H1         17.3129   16.7562   29.3653 H       1  lig         0.1340
      2 H2         15.2769   13.0055   29.4174 H       1  lig         0.1340
      3 H3         18.9961   15.7810   27.8941 H       1  lig         0.1475
      4 H4         17.0002   12.0003   27.9720 H       1  lig         0.1475
      5 H5         14.3267   14.8157   30.4906 H       1  lig         0.0877
      6 H6         15.5216   15.6582   31.4251 H       1  lig         0.0877
      7 H7         15.3335   17.6500   29.9292 H       1  lig         0.0966
      8 H8         13.8404   17.3751   31.8481 H       1  lig         0.4431
      9 H9         13.0072   18.1301   30.6280 H       1  lig         0.4431
     10 H10        12.7630   16.5074   30.9141 H       1  lig         0.4431
     11 H11        19.0968   12.4207   27.1982 H       1  lig         0.4214
     12 C1         17.2360   15.7120   29.0729 C.ar    1  lig        -0.0999
     13 C2         16.1135   13.6138   29.0817 C.ar    1  lig        -0.0999
     14 C3         18.1755   15.1641   28.2436 C.ar    1  lig        -0.1787
     15 C4         17.0784   13.0391   28.2768 C.ar    1  lig        -0.1787
     16 C5         16.2029   14.9361   29.5013 C.ar    1  lig        -0.1394
     17 C6         18.1331   13.8473   27.8691 C.ar    1  lig         0.1292
     18 C7         14.0373   16.7534   28.5281 C.2     1  lig         0.9321
     19 C8         15.1434   15.5416   30.4022 C.3     1  lig        -0.0452
     20 C9         14.5623   16.8783   29.9400 C.3     1  lig        -0.0740
     21 N1         13.5043   17.2512   30.8782 N.4     1  lig        -0.8252
     22 O1         13.5556   15.6559   28.2559 O.co2   1  lig        -0.7573
     23 O2         14.1095   17.6824   27.6733 O.co2   1  lig        -0.7573
     24 O3         19.0344   13.4128   27.0815 O.3     1  lig        -0.4913
@<TRIPOS>BOND
     1     1    12    1
     2     2    13    1
     3     3    14    1
     4     4    15    1
     5     5    19    1
     6     6    19    1
     7     7    20    1
     8     8    21    1
     9     9    21    1
    10    10    21    1
    11    11    24    1
    12    12    14   ar
    13    12    16   ar
    14    13    15   ar
    15    13    16   ar
    16    14    17   ar
    17    15    17   ar
    18    16    19    1
    19    17    24    1
    20    18    20    1
    21    18    22    1
    22    18    23    1
    23    19    20    1
    24    20    21    1
@<TRIPOS>SUBSTRUCTURE
     1 lig         1 TEMP              0 ****  ****    0 ROOT


########## Name:		ligand
########## HA_RMSDs:		14.5657
########## HA_RMSDh:		14.5118
########## HA_RMSDm:		12.5084
########## Cluster Size:	1
##########    Grid Score:          -13.718266
##########      Grid_vdw:          -14.698602
##########       Grid_es:            0.980336
##########    Int_energy:            2.330352

@<TRIPOS>MOLECULE
ligand
 24 24 1 0 0
SMALL
No Charge or Current Charge


@<TRIPOS>ATOM
      1 H1         24.3777    7.4141   14.6887 H       1  lig         0.1340
      2 H2         22.5799    3.8764   13.1175 H       1  lig         0.1340
      3 H3         23.3385    8.6963   12.8929 H       1  lig         0.1475
      4 H4         21.5680    5.1574   11.2725 H       1  lig         0.1475
      5 H5         24.3296    5.4378   15.9793 H       1  lig         0.0877
      6 H6         23.5004    3.9936   15.4922 H       1  lig         0.0877
      7 H7         25.5657    3.7903   13.7586 H       1  lig         0.0966
      8 H8         24.9328    2.2252   15.5297 H       1  lig         0.4431
      9 H9         26.5785    2.4334   15.5649 H       1  lig         0.4431
     10 H10        25.6227    3.2157   16.6825 H       1  lig         0.4431
     11 H11        21.4542    7.1641   10.4007 H       1  lig         0.4214
     12 C1         23.7701    6.9068   13.9436 C.ar    1  lig        -0.0999
     13 C2         22.7518    4.9484   13.0546 C.ar    1  lig        -0.0999
     14 C3         23.1817    7.6242   12.9387 C.ar    1  lig        -0.1787
     15 C4         22.1854    5.6570   12.0123 C.ar    1  lig        -0.1787
     16 C5         23.5625    5.5628   14.0021 C.ar    1  lig        -0.1394
     17 C6         22.4287    7.0246   11.9642 C.ar    1  lig         0.1292
     18 C7         26.6583    5.0889   15.0103 C.2     1  lig         0.9321
     19 C8         24.1917    4.7626   15.1267 C.3     1  lig        -0.0452
     20 C9         25.5323    4.1020   14.8036 C.3     1  lig        -0.0740
     21 N1         25.6726    2.9334   15.6716 N.4     1  lig        -0.8252
     22 O1         26.7436    5.5370   16.1516 O.co2   1  lig        -0.7573
     23 O2         27.4383    5.4593   14.0866 O.co2   1  lig        -0.7573
     24 O3         21.8994    7.7604   11.0699 O.3     1  lig        -0.4913
@<TRIPOS>BOND
     1     1    12    1
     2     2    13    1
     3     3    14    1
     4     4    15    1
     5     5    19    1
     6     6    19    1
     7     7    20    1
     8     8    21    1
     9     9    21    1
    10    10    21    1
    11    11    24    1
    12    12    14   ar
    13    12    16   ar
    14    13    15   ar
    15    13    16   ar
    16    14    17   ar
    17    15    17   ar
    18    16    19    1
    19    17    24    1
    20    18    20    1
    21    18    22    1
    22    18    23    1
    23    19    20    1
    24    20    21    1
@<TRIPOS>SUBSTRUCTURE
     1 lig         1 TEMP              0 ****  ****    0 ROOT


########## Name:		ligand
########## HA_RMSDs:		16.3707
########## HA_RMSDh:		16.3181
########## HA_RMSDm:		14.1303
########## Cluster Size:	1
##########    Grid Score:          -13.706357
##########      Grid_vdw:          -13.260676
##########       Grid_es:           -0.445680
##########    Int_energy:            3.626070

@<TRIPOS>MOLECULE
ligand
 24 24 1 0 0
SMALL
No Charge or Current Charge


@<TRIPOS>ATOM
      1 H1          8.0345    7.4508   25.7023 H       1  lig         0.1340
      2 H2          4.9252    7.9294   22.8181 H       1  lig         0.1340
      3 H3          6.9563    5.4027   26.4715 H       1  lig         0.1475
      4 H4          3.8042    5.8887   23.6233 H       1  lig         0.1475
      5 H5          6.4952    9.6266   23.0958 H       1  lig         0.0877
      6 H6          7.4052    9.7833   24.5647 H       1  lig         0.0877
      7 H7          9.1007    8.0880   23.3883 H       1  lig         0.0966
      8 H8          9.5164   10.4281   23.9697 H       1  lig         0.4431
      9 H9         10.1476   10.1324   22.4640 H       1  lig         0.4431
     10 H10         8.6955   10.9357   22.6079 H       1  lig         0.4431
     11 H11         5.4021    4.1210   26.3232 H       1  lig         0.4214
     12 C1          7.1054    7.1233   25.2428 C.ar    1  lig        -0.0999
     13 C2          5.3655    7.3662   23.6376 C.ar    1  lig        -0.0999
     14 C3          6.5015    5.9723   25.6685 C.ar    1  lig        -0.1787
     15 C4          4.7258    6.2267   24.0865 C.ar    1  lig        -0.1787
     16 C5          6.5355    7.8296   24.2283 C.ar    1  lig        -0.1394
     17 C6          5.3177    5.5345   25.1364 C.ar    1  lig         0.1292
     18 C7          8.1972    8.4943   21.5267 C.2     1  lig         0.9321
     19 C8          7.2107    9.0947   23.7336 C.3     1  lig        -0.0452
     20 C9          8.5087    8.8933   22.9510 C.3     1  lig        -0.0740
     21 N1          9.2612   10.1459   23.0083 N.4     1  lig        -0.8252
     22 O1          7.3847    7.5787   21.4173 O.co2   1  lig        -0.7573
     23 O2          8.7439    9.0270   20.5186 O.co2   1  lig        -0.7573
     24 O3          4.8241    4.4450   25.5731 O.3     1  lig        -0.4913
@<TRIPOS>BOND
     1     1    12    1
     2     2    13    1
     3     3    14    1
     4     4    15    1
     5     5    19    1
     6     6    19    1
     7     7    20    1
     8     8    21    1
     9     9    21    1
    10    10    21    1
    11    11    24    1
    12    12    14   ar
    13    12    16   ar
    14    13    15   ar
    15    13    16   ar
    16    14    17   ar
    17    15    17   ar
    18    16    19    1
    19    17    24    1
    20    18    20    1
    21    18    22    1
    22    18    23    1
    23    19    20    1
    24    20    21    1
@<TRIPOS>SUBSTRUCTURE
     1 lig         1 TEMP              0 ****  ****    0 ROOT


########## Name:		ligand
########## HA_RMSDs:		14.0915
########## HA_RMSDh:		13.9632
########## HA_RMSDm:		12.0613
########## Cluster Size:	1
##########    Grid Score:          -13.669858
##########      Grid_vdw:          -13.758458
##########       Grid_es:            0.088600
##########    Int_energy:            1.456354

@<TRIPOS>MOLECULE
ligand
 24 24 1 0 0
SMALL
No Charge or Current Charge


@<TRIPOS>ATOM
      1 H1          7.7972   11.3272   23.6793 H       1  lig         0.1340
      2 H2          9.3129    9.6987   27.3216 H       1  lig         0.1340
      3 H3          6.5436    9.2658   23.3216 H       1  lig         0.1475
      4 H4          8.0888    7.5948   26.9415 H       1  lig         0.1475
      5 H5          9.1730   12.6090   24.9316 H       1  lig         0.0877
      6 H6          9.0629   12.4245   26.6533 H       1  lig         0.0877
      7 H7         11.2142   10.8924   26.4010 H       1  lig         0.0966
      8 H8         11.1041   13.0969   27.4569 H       1  lig         0.4431
      9 H9         12.4972   13.0039   26.5604 H       1  lig         0.4431
     10 H10        11.1857   13.8405   25.9648 H       1  lig         0.4431
     11 H11         6.3136    6.8449   25.7037 H       1  lig         0.4214
     12 C1          7.8749   10.5153   24.3981 C.ar    1  lig        -0.0999
     13 C2          8.7018    9.5904   26.4287 C.ar    1  lig        -0.0999
     14 C3          7.1687    9.3604   24.2027 C.ar    1  lig        -0.1787
     15 C4          8.0244    8.4041   26.2211 C.ar    1  lig        -0.1787
     16 C5          8.6506   10.6328   25.5104 C.ar    1  lig        -0.1394
     17 C6          7.2549    8.3022   25.0681 C.ar    1  lig         0.1292
     18 C7         11.5193   11.6152   24.4436 C.2     1  lig         0.9321
     19 C8          9.4188   11.9191   25.7474 C.3     1  lig        -0.0452
     20 C9         10.9393   11.7802   25.8296 C.3     1  lig        -0.0740
     21 N1         11.4595   12.9749   26.4936 N.4     1  lig        -0.8252
     22 O1         11.7577   10.4528   24.1232 O.co2   1  lig        -0.7573
     23 O2         11.7752   12.5863   23.6753 O.co2   1  lig        -0.7573
     24 O3          6.5551    7.2658   24.8284 O.3     1  lig        -0.4913
@<TRIPOS>BOND
     1     1    12    1
     2     2    13    1
     3     3    14    1
     4     4    15    1
     5     5    19    1
     6     6    19    1
     7     7    20    1
     8     8    21    1
     9     9    21    1
    10    10    21    1
    11    11    24    1
    12    12    14   ar
    13    12    16   ar
    14    13    15   ar
    15    13    16   ar
    16    14    17   ar
    17    15    17   ar
    18    16    19    1
    19    17    24    1
    20    18    20    1
    21    18    22    1
    22    18    23    1
    23    19    20    1
    24    20    21    1
@<TRIPOS>SUBSTRUCTURE
     1 lig         1 TEMP              0 ****  ****    0 ROOT


########## Name:		ligand
########## HA_RMSDs:		15.1572
########## HA_RMSDh:		15.0919
########## HA_RMSDm:		13.5013
########## Cluster Size:	1
##########    Grid Score:          -13.653069
##########      Grid_vdw:          -13.602961
##########       Grid_es:           -0.050108
##########    Int_energy:            2.718295

@<TRIPOS>MOLECULE
ligand
 24 24 1 0 0
SMALL
No Charge or Current Charge


@<TRIPOS>ATOM
      1 H1          9.8040    8.9118   27.5548 H       1  lig         0.1340
      2 H2          7.7061   12.5909   27.0266 H       1  lig         0.1340
      3 H3          9.7740    8.5895   25.1374 H       1  lig         0.1475
      4 H4          7.6283   12.2472   24.5884 H       1  lig         0.1475
      5 H5          7.9682   11.6800   29.1964 H       1  lig         0.0877
      6 H6          8.5012   10.0526   29.4757 H       1  lig         0.0877
      7 H7          9.8980   12.2657   30.2711 H       1  lig         0.0966
      8 H8         10.3648   12.8733   27.9474 H       1  lig         0.4431
      9 H9         11.7872   12.4335   28.6796 H       1  lig         0.4431
     10 H10        11.0177   11.3643   27.6603 H       1  lig         0.4431
     11 H11         9.6672    9.8853   23.2289 H       1  lig         0.4214
     12 C1          9.3188    9.6465   26.9172 C.ar    1  lig        -0.0999
     13 C2          8.1555   11.6979   26.5987 C.ar    1  lig        -0.0999
     14 C3          9.3053    9.4710   25.5609 C.ar    1  lig        -0.1787
     15 C4          8.1009   11.5109   25.2307 C.ar    1  lig        -0.1787
     16 C5          8.7374   10.7593   27.4431 C.ar    1  lig        -0.1394
     17 C6          8.6847   10.3572   24.7208 C.ar    1  lig         0.1292
     18 C7         10.8444   10.3831   30.1871 C.2     1  lig         0.9321
     19 C8          8.7682   10.9741   28.9444 C.3     1  lig        -0.0452
     20 C9         10.0851   11.5031   29.5136 C.3     1  lig        -0.0740
     21 N1         10.8464   12.0827   28.4077 N.4     1  lig        -0.8252
     22 O1         11.7580    9.9078   29.5162 O.co2   1  lig        -0.7573
     23 O2         10.5554    9.9368   31.3343 O.co2   1  lig        -0.7573
     24 O3          8.7279   10.1350   23.4678 O.3     1  lig        -0.4913
@<TRIPOS>BOND
     1     1    12    1
     2     2    13    1
     3     3    14    1
     4     4    15    1
     5     5    19    1
     6     6    19    1
     7     7    20    1
     8     8    21    1
     9     9    21    1
    10    10    21    1
    11    11    24    1
    12    12    14   ar
    13    12    16   ar
    14    13    15   ar
    15    13    16   ar
    16    14    17   ar
    17    15    17   ar
    18    16    19    1
    19    17    24    1
    20    18    20    1
    21    18    22    1
    22    18    23    1
    23    19    20    1
    24    20    21    1
@<TRIPOS>SUBSTRUCTURE
     1 lig         1 TEMP              0 ****  ****    0 ROOT


########## Name:		ligand
########## HA_RMSDs:		14.0673
########## HA_RMSDh:		14.0520
########## HA_RMSDm:		12.1473
########## Cluster Size:	1
##########    Grid Score:          -13.623672
##########      Grid_vdw:          -13.351878
##########       Grid_es:           -0.271794
##########    Int_energy:           11.962191

@<TRIPOS>MOLECULE
ligand
 24 24 1 0 0
SMALL
No Charge or Current Charge


@<TRIPOS>ATOM
      1 H1         26.5638    6.9546   15.7025 H       1  lig         0.1340
      2 H2         22.6163    5.3415   15.5266 H       1  lig         0.1340
      3 H3         26.0934    8.2311   13.6781 H       1  lig         0.1475
      4 H4         22.1515    6.5894   13.4540 H       1  lig         0.1475
      5 H5         25.9904    5.2944   17.1715 H       1  lig         0.0877
      6 H6         24.4753    5.7723   17.8691 H       1  lig         0.0877
      7 H7         25.1064    3.1979   17.6108 H       1  lig         0.0966
      8 H8         25.4275    3.3658   15.1910 H       1  lig         0.4431
      9 H9         24.1417    2.3607   15.4899 H       1  lig         0.4431
     10 H10        23.8680    3.9291   15.0005 H       1  lig         0.4431
     11 H11        22.9683    8.2008   12.1868 H       1  lig         0.4214
     12 C1         25.5959    6.8607   15.2166 C.ar    1  lig        -0.0999
     13 C2         23.3884    5.9796   15.1030 C.ar    1  lig        -0.0999
     14 C3         25.3275    7.5795   14.0844 C.ar    1  lig        -0.1787
     15 C4         23.1203    6.6702   13.9366 C.ar    1  lig        -0.1787
     16 C5         24.6281    6.0515   15.7278 C.ar    1  lig        -0.1394
     17 C6         24.1318    7.4742   13.4245 C.ar    1  lig         0.1292
     18 C7         23.0600    3.7061   17.5840 C.2     1  lig         0.9321
     19 C8         24.9085    5.2687   16.9964 C.3     1  lig        -0.0452
     20 C9         24.4476    3.8108   16.9939 C.3     1  lig        -0.0740
     21 N1         24.4834    3.3357   15.6113 N.4     1  lig        -0.8252
     22 O1         22.5222    4.7851   17.8230 O.co2   1  lig        -0.7573
     23 O2         22.4961    2.6053   17.8473 O.co2   1  lig        -0.7573
     24 O3         23.9491    8.1873   12.3856 O.3     1  lig        -0.4913
@<TRIPOS>BOND
     1     1    12    1
     2     2    13    1
     3     3    14    1
     4     4    15    1
     5     5    19    1
     6     6    19    1
     7     7    20    1
     8     8    21    1
     9     9    21    1
    10    10    21    1
    11    11    24    1
    12    12    14   ar
    13    12    16   ar
    14    13    15   ar
    15    13    16   ar
    16    14    17   ar
    17    15    17   ar
    18    16    19    1
    19    17    24    1
    20    18    20    1
    21    18    22    1
    22    18    23    1
    23    19    20    1
    24    20    21    1
@<TRIPOS>SUBSTRUCTURE
     1 lig         1 TEMP              0 ****  ****    0 ROOT


########## Name:		ligand
########## HA_RMSDs:		11.2345
########## HA_RMSDh:		11.1388
########## HA_RMSDm:		8.7437
########## Cluster Size:	1
##########    Grid Score:          -13.606992
##########      Grid_vdw:          -11.201697
##########       Grid_es:           -2.405294
##########    Int_energy:            1.976880

@<TRIPOS>MOLECULE
ligand
 24 24 1 0 0
SMALL
No Charge or Current Charge


@<TRIPOS>ATOM
      1 H1         15.9509   15.6312   26.0864 H       1  lig         0.1340
      2 H2         16.9628   13.6924   29.7514 H       1  lig         0.1340
      3 H3         14.5318   17.1723   27.3354 H       1  lig         0.1475
      4 H4         15.4923   15.2138   31.0131 H       1  lig         0.1475
      5 H5         17.7871   12.8428   27.7720 H       1  lig         0.0877
      6 H6         16.8495   13.0372   26.3250 H       1  lig         0.0877
      7 H7         18.4188   15.2789   26.1175 H       1  lig         0.0966
      8 H8         18.1091   13.4816   24.4863 H       1  lig         0.4431
      9 H9         19.7314   13.7995   24.6280 H       1  lig         0.4431
     10 H10        19.0813   12.4666   25.3865 H       1  lig         0.4431
     11 H11        13.8440   17.7988   29.1293 H       1  lig         0.4214
     12 C1         15.8544   15.5249   27.1639 C.ar    1  lig        -0.0999
     13 C2         16.4104   14.4637   29.2200 C.ar    1  lig        -0.0999
     14 C3         15.0636   16.3911   27.8675 C.ar    1  lig        -0.1787
     15 C4         15.5831   15.3079   29.9357 C.ar    1  lig        -0.1787
     16 C5         16.5271   14.5521   27.8376 C.ar    1  lig        -0.1394
     17 C6         14.8922   16.2801   29.2219 C.ar    1  lig         0.1292
     18 C7         19.8205   14.2425   27.3041 C.2     1  lig         0.9321
     19 C8         17.4251   13.6017   27.0685 C.3     1  lig        -0.0452
     20 C9         18.6289   14.2395   26.3742 C.3     1  lig        -0.0740
     21 N1         18.8963   13.4750   25.1566 N.4     1  lig        -0.8252
     22 O1         19.6432   14.8422   28.3621 O.co2   1  lig        -0.7573
     23 O2         20.9285   13.7044   27.0183 O.co2   1  lig        -0.7573
     24 O3         14.1529   17.1336   29.8104 O.3     1  lig        -0.4913
@<TRIPOS>BOND
     1     1    12    1
     2     2    13    1
     3     3    14    1
     4     4    15    1
     5     5    19    1
     6     6    19    1
     7     7    20    1
     8     8    21    1
     9     9    21    1
    10    10    21    1
    11    11    24    1
    12    12    14   ar
    13    12    16   ar
    14    13    15   ar
    15    13    16   ar
    16    14    17   ar
    17    15    17   ar
    18    16    19    1
    19    17    24    1
    20    18    20    1
    21    18    22    1
    22    18    23    1
    23    19    20    1
    24    20    21    1
@<TRIPOS>SUBSTRUCTURE
     1 lig         1 TEMP              0 ****  ****    0 ROOT


########## Name:		ligand
########## HA_RMSDs:		12.1917
########## HA_RMSDh:		12.1057
########## HA_RMSDm:		10.8715
########## Cluster Size:	1
##########    Grid Score:          -13.574477
##########      Grid_vdw:          -12.880837
##########       Grid_es:           -0.693640
##########    Int_energy:            2.802313

@<TRIPOS>MOLECULE
ligand
 24 24 1 0 0
SMALL
No Charge or Current Charge


@<TRIPOS>ATOM
      1 H1          8.8958   12.2732   25.0921 H       1  lig         0.1340
      2 H2         12.6210   10.4581   24.0703 H       1  lig         0.1340
      3 H3          9.8213   12.8613   27.2707 H       1  lig         0.1475
      4 H4         13.5456   11.0049   26.2873 H       1  lig         0.1475
      5 H5          9.3743   11.7105   22.8372 H       1  lig         0.0877
      6 H6         10.8949   11.0592   22.3136 H       1  lig         0.0877
      7 H7          8.5356    9.6289   22.4545 H       1  lig         0.0966
      8 H8          8.6593    9.6423   24.8981 H       1  lig         0.4431
      9 H9          8.9042    8.0919   24.3602 H       1  lig         0.4431
     10 H10        10.2043    9.0130   24.8458 H       1  lig         0.4431
     11 H11        13.0016   11.8545   28.2435 H       1  lig         0.4214
     12 C1          9.9131   11.9841   25.3434 C.ar    1  lig        -0.0999
     13 C2         12.0011   10.9844   24.7923 C.ar    1  lig        -0.0999
     14 C3         10.4365   12.3173   26.5624 C.ar    1  lig        -0.1787
     15 C4         12.5265   11.2807   26.0354 C.ar    1  lig        -0.1787
     16 C5         10.6924   11.3095   24.4544 C.ar    1  lig        -0.1394
     17 C6         11.7039   11.9526   26.9320 C.ar    1  lig         0.1292
     18 C7         10.3857    8.6611   22.1586 C.2     1  lig         0.9321
     19 C8         10.1284   10.9564   23.0912 C.3     1  lig        -0.0452
     20 C9          9.4938    9.5703   22.9727 C.3     1  lig        -0.0740
     21 N1          9.2917    9.0568   24.3270 N.4     1  lig        -0.8252
     22 O1         10.8268    7.6923   22.7729 O.co2   1  lig        -0.7573
     23 O2         10.6899    8.8823   20.9514 O.co2   1  lig        -0.7573
     24 O3         12.1276   12.3130   28.0774 O.3     1  lig        -0.4913
@<TRIPOS>BOND
     1     1    12    1
     2     2    13    1
     3     3    14    1
     4     4    15    1
     5     5    19    1
     6     6    19    1
     7     7    20    1
     8     8    21    1
     9     9    21    1
    10    10    21    1
    11    11    24    1
    12    12    14   ar
    13    12    16   ar
    14    13    15   ar
    15    13    16   ar
    16    14    17   ar
    17    15    17   ar
    18    16    19    1
    19    17    24    1
    20    18    20    1
    21    18    22    1
    22    18    23    1
    23    19    20    1
    24    20    21    1
@<TRIPOS>SUBSTRUCTURE
     1 lig         1 TEMP              0 ****  ****    0 ROOT


########## Name:		ligand
########## HA_RMSDs:		14.3852
########## HA_RMSDh:		14.3680
########## HA_RMSDm:		10.7713
########## Cluster Size:	1
##########    Grid Score:          -13.572599
##########      Grid_vdw:          -12.286236
##########       Grid_es:           -1.286364
##########    Int_energy:            3.338916

@<TRIPOS>MOLECULE
ligand
 24 24 1 0 0
SMALL
No Charge or Current Charge


@<TRIPOS>ATOM
      1 H1         17.5707   16.4309   32.9517 H       1  lig         0.1340
      2 H2         19.5689   17.2774   29.2766 H       1  lig         0.1340
      3 H3         15.5143   17.3326   31.9994 H       1  lig         0.1475
      4 H4         17.5079   18.2353   28.3259 H       1  lig         0.1475
      5 H5         19.8592   16.1933   32.8510 H       1  lig         0.0877
      6 H6         20.1149   15.2001   31.4515 H       1  lig         0.0877
      7 H7         21.4101   17.0923   30.3697 H       1  lig         0.0966
      8 H8         22.4930   15.3317   31.6790 H       1  lig         0.4431
      9 H9         23.3001   16.7588   31.9339 H       1  lig         0.4431
     10 H10        22.2400   16.1918   33.0868 H       1  lig         0.4431
     11 H11        14.5849   18.1966   30.4290 H       1  lig         0.4214
     12 C1         17.5722   16.8286   31.9400 C.ar    1  lig        -0.0999
     13 C2         18.6642   17.3025   29.8795 C.ar    1  lig        -0.0999
     14 C3         16.4191   17.3298   31.4015 C.ar    1  lig        -0.1787
     15 C4         17.5150   17.8478   29.3397 C.ar    1  lig        -0.1787
     16 C5         18.7029   16.8188   31.1822 C.ar    1  lig        -0.1394
     17 C6         16.3793   17.8637   30.1408 C.ar    1  lig         0.1292
     18 C7         21.1594   18.4262   31.9836 C.2     1  lig         0.9321
     19 C8         19.9806   16.2431   31.7626 C.3     1  lig        -0.0452
     20 C9         21.2616   17.0165   31.4478 C.3     1  lig        -0.0740
     21 N1         22.3788   16.2899   32.0499 N.4     1  lig        -0.8252
     22 O1         20.6262   19.2273   31.2190 O.co2   1  lig        -0.7573
     23 O2         21.6103   18.7772   33.1115 O.co2   1  lig        -0.7573
     24 O3         15.2652   18.2966   29.7018 O.3     1  lig        -0.4913
@<TRIPOS>BOND
     1     1    12    1
     2     2    13    1
     3     3    14    1
     4     4    15    1
     5     5    19    1
     6     6    19    1
     7     7    20    1
     8     8    21    1
     9     9    21    1
    10    10    21    1
    11    11    24    1
    12    12    14   ar
    13    12    16   ar
    14    13    15   ar
    15    13    16   ar
    16    14    17   ar
    17    15    17   ar
    18    16    19    1
    19    17    24    1
    20    18    20    1
    21    18    22    1
    22    18    23    1
    23    19    20    1
    24    20    21    1
@<TRIPOS>SUBSTRUCTURE
     1 lig         1 TEMP              0 ****  ****    0 ROOT


########## Name:		ligand
########## HA_RMSDs:		13.8834
########## HA_RMSDh:		13.8202
########## HA_RMSDm:		11.5558
########## Cluster Size:	1
##########    Grid Score:          -13.539244
##########      Grid_vdw:          -13.488667
##########       Grid_es:           -0.050577
##########    Int_energy:            2.553184

@<TRIPOS>MOLECULE
ligand
 24 24 1 0 0
SMALL
No Charge or Current Charge


@<TRIPOS>ATOM
      1 H1          9.6020   11.2540   23.2052 H       1  lig         0.1340
      2 H2          9.6844    9.6298   27.1511 H       1  lig         0.1340
      3 H3         10.7189   13.2535   24.0439 H       1  lig         0.1475
      4 H4         10.7675   11.6671   28.0144 H       1  lig         0.1475
      5 H5          9.0404    9.0292   23.5277 H       1  lig         0.0877
      6 H6          9.3646    8.1745   25.0025 H       1  lig         0.0877
      7 H7          6.8832    9.9288   24.7026 H       1  lig         0.0966
      8 H8          7.5904    9.2626   26.9482 H       1  lig         0.4431
      9 H9          6.2070    8.4342   26.5571 H       1  lig         0.4431
     10 H10         7.6825    7.6662   26.4701 H       1  lig         0.4431
     11 H11        11.1749   14.3876   25.7567 H       1  lig         0.4214
     12 C1          9.8460   11.3344   24.2614 C.ar    1  lig        -0.0999
     13 C2          9.9094   10.4453   26.4678 C.ar    1  lig        -0.0999
     14 C3         10.4772   12.4522   24.7335 C.ar    1  lig        -0.1787
     15 C4         10.5109   11.5865   26.9628 C.ar    1  lig        -0.1787
     16 C5          9.5532   10.3274   25.1293 C.ar    1  lig        -0.1394
     17 C6         10.7815   12.6080   26.0598 C.ar    1  lig         0.1292
     18 C7          6.7462    7.9681   23.9384 C.2     1  lig         0.9321
     19 C8          8.8745    9.0740   24.6104 C.3     1  lig        -0.0452
     20 C9          7.3731    8.9703   24.8804 C.3     1  lig        -0.0740
     21 N1          7.1988    8.5791   26.2787 N.4     1  lig        -0.8252
     22 O1          7.4476    6.9897   23.6907 O.co2   1  lig        -0.7573
     23 O2          5.6068    8.1241   23.4129 O.co2   1  lig        -0.7573
     24 O3         11.3841   13.6696   26.4219 O.3     1  lig        -0.4913
@<TRIPOS>BOND
     1     1    12    1
     2     2    13    1
     3     3    14    1
     4     4    15    1
     5     5    19    1
     6     6    19    1
     7     7    20    1
     8     8    21    1
     9     9    21    1
    10    10    21    1
    11    11    24    1
    12    12    14   ar
    13    12    16   ar
    14    13    15   ar
    15    13    16   ar
    16    14    17   ar
    17    15    17   ar
    18    16    19    1
    19    17    24    1
    20    18    20    1
    21    18    22    1
    22    18    23    1
    23    19    20    1
    24    20    21    1
@<TRIPOS>SUBSTRUCTURE
     1 lig         1 TEMP              0 ****  ****    0 ROOT


########## Name:		ligand
########## HA_RMSDs:		13.4192
########## HA_RMSDh:		13.3834
########## HA_RMSDm:		10.4379
########## Cluster Size:	1
##########    Grid Score:          -13.537064
##########      Grid_vdw:          -13.979332
##########       Grid_es:            0.442268
##########    Int_energy:            2.252387

@<TRIPOS>MOLECULE
ligand
 24 24 1 0 0
SMALL
No Charge or Current Charge


@<TRIPOS>ATOM
      1 H1         16.3777   17.0785   28.2234 H       1  lig         0.1340
      2 H2         13.8464   15.3545   31.1959 H       1  lig         0.1340
      3 H3         15.4815   19.2759   28.7863 H       1  lig         0.1475
      4 H4         12.9007   17.5645   31.7350 H       1  lig         0.1475
      5 H5         14.9579   13.9632   29.5811 H       1  lig         0.0877
      6 H6         15.8601   14.6002   28.2428 H       1  lig         0.0877
      7 H7         17.8035   15.0698   29.8013 H       1  lig         0.0966
      8 H8         17.6032   12.9866   28.5336 H       1  lig         0.4431
      9 H9         18.2886   12.6506   30.0068 H       1  lig         0.4431
     10 H10        16.6788   12.3103   29.7476 H       1  lig         0.4431
     11 H11        14.2112   20.3758   29.9055 H       1  lig         0.4214
     12 C1         15.6123   17.1702   28.9898 C.ar    1  lig        -0.0999
     13 C2         14.1979   16.2315   30.6573 C.ar    1  lig        -0.0999
     14 C3         15.1119   18.4018   29.3113 C.ar    1  lig        -0.1787
     15 C4         13.6565   17.4657   30.9623 C.ar    1  lig        -0.1787
     16 C5         15.1519   16.0774   29.6581 C.ar    1  lig        -0.1394
     17 C6         14.1294   18.5628   30.2520 C.ar    1  lig         0.1292
     18 C7         16.8251   14.3565   31.5279 C.2     1  lig         0.9321
     19 C8         15.7182   14.7102   29.3248 C.3     1  lig        -0.0452
     20 C9         17.0240   14.3414   30.0296 C.3     1  lig        -0.0740
     21 N1         17.4288   13.0197   29.5522 N.4     1  lig        -0.8252
     22 O1         17.0808   15.4307   32.0677 O.co2   1  lig        -0.7573
     23 O2         16.4574   13.3453   32.1921 O.co2   1  lig        -0.7573
     24 O3         13.7250   19.7425   30.5090 O.3     1  lig        -0.4913
@<TRIPOS>BOND
     1     1    12    1
     2     2    13    1
     3     3    14    1
     4     4    15    1
     5     5    19    1
     6     6    19    1
     7     7    20    1
     8     8    21    1
     9     9    21    1
    10    10    21    1
    11    11    24    1
    12    12    14   ar
    13    12    16   ar
    14    13    15   ar
    15    13    16   ar
    16    14    17   ar
    17    15    17   ar
    18    16    19    1
    19    17    24    1
    20    18    20    1
    21    18    22    1
    22    18    23    1
    23    19    20    1
    24    20    21    1
@<TRIPOS>SUBSTRUCTURE
     1 lig         1 TEMP              0 ****  ****    0 ROOT


########## Name:		ligand
########## HA_RMSDs:		14.3024
########## HA_RMSDh:		14.2666
########## HA_RMSDm:		12.4942
########## Cluster Size:	1
##########    Grid Score:          -13.486729
##########      Grid_vdw:          -12.067350
##########       Grid_es:           -1.419378
##########    Int_energy:            2.461604

@<TRIPOS>MOLECULE
ligand
 24 24 1 0 0
SMALL
No Charge or Current Charge


@<TRIPOS>ATOM
      1 H1         25.8584    8.3167   16.0613 H       1  lig         0.1340
      2 H2         23.5756    4.8569   15.0444 H       1  lig         0.1340
      3 H3         25.4886    9.1780   13.8096 H       1  lig         0.1475
      4 H4         23.2403    5.6977   12.7532 H       1  lig         0.1475
      5 H5         25.1872    6.8453   17.7421 H       1  lig         0.0877
      6 H6         24.0427    5.5657   17.4903 H       1  lig         0.0877
      7 H7         26.3240    4.4959   16.2898 H       1  lig         0.0966
      8 H8         24.7796    3.4387   17.8659 H       1  lig         0.4431
      9 H9         26.3318    3.2094   18.4052 H       1  lig         0.4431
     10 H10        25.3752    4.3753   19.1125 H       1  lig         0.4431
     11 H11        23.9777    7.2902   11.3499 H       1  lig         0.4214
     12 C1         25.2887    7.7304   15.3448 C.ar    1  lig        -0.0999
     13 C2         24.0064    5.8135   14.7583 C.ar    1  lig        -0.0999
     14 C3         25.0751    8.2135   14.0831 C.ar    1  lig        -0.1787
     15 C4         23.8184    6.2734   13.4690 C.ar    1  lig        -0.1787
     16 C5         24.7597    6.5235   15.6861 C.ar    1  lig        -0.1394
     17 C6         24.3851    7.4991   13.1399 C.ar    1  lig         0.1292
     18 C7         27.3502    5.6349   17.7377 C.2     1  lig         0.9321
     19 C8         24.9714    5.9906   17.0904 C.3     1  lig        -0.0452
     20 C9         26.0893    4.9596   17.2491 C.3     1  lig        -0.0740
     21 N1         25.6240    3.9404   18.1889 N.4     1  lig        -0.8252
     22 O1         27.7103    6.5971   17.0631 O.co2   1  lig        -0.7573
     23 O2         28.0114    5.2354   18.7387 O.co2   1  lig        -0.7573
     24 O3         24.2129    8.0214   11.9915 O.3     1  lig        -0.4913
@<TRIPOS>BOND
     1     1    12    1
     2     2    13    1
     3     3    14    1
     4     4    15    1
     5     5    19    1
     6     6    19    1
     7     7    20    1
     8     8    21    1
     9     9    21    1
    10    10    21    1
    11    11    24    1
    12    12    14   ar
    13    12    16   ar
    14    13    15   ar
    15    13    16   ar
    16    14    17   ar
    17    15    17   ar
    18    16    19    1
    19    17    24    1
    20    18    20    1
    21    18    22    1
    22    18    23    1
    23    19    20    1
    24    20    21    1
@<TRIPOS>SUBSTRUCTURE
     1 lig         1 TEMP              0 ****  ****    0 ROOT


########## Name:		ligand
########## HA_RMSDs:		15.9691
########## HA_RMSDh:		15.8785
########## HA_RMSDm:		12.9927
########## Cluster Size:	1
##########    Grid Score:          -13.454643
##########      Grid_vdw:           -9.655046
##########       Grid_es:           -3.799597
##########    Int_energy:            3.621783

@<TRIPOS>MOLECULE
ligand
 24 24 1 0 0
SMALL
No Charge or Current Charge


@<TRIPOS>ATOM
      1 H1         22.3259    3.7659   13.8368 H       1  lig         0.1340
      2 H2         26.4148    4.7966   14.4957 H       1  lig         0.1340
      3 H3         23.0543    1.6608   12.8433 H       1  lig         0.1475
      4 H4         27.1590    2.6947   13.4482 H       1  lig         0.1475
      5 H5         22.9956    5.5106   15.4569 H       1  lig         0.0877
      6 H6         24.6282    6.0900   15.5535 H       1  lig         0.0877
      7 H7         23.0137    7.6622   14.3879 H       1  lig         0.0966
      8 H8         21.7808    5.9183   13.1940 H       1  lig         0.4431
      9 H9         22.4134    6.9783   12.0853 H       1  lig         0.4431
     10 H10        23.1513    5.5060   12.3350 H       1  lig         0.4431
     11 H11        26.3410    1.0090   12.1354 H       1  lig         0.4214
     12 C1         23.3872    3.5465   13.7521 C.ar    1  lig        -0.0999
     13 C2         25.6734    4.0973   14.1164 C.ar    1  lig        -0.0999
     14 C3         23.7983    2.3644   13.2004 C.ar    1  lig        -0.1787
     15 C4         26.1009    2.9242   13.5246 C.ar    1  lig        -0.1787
     16 C5         24.3248    4.4221   14.2072 C.ar    1  lig        -0.1394
     17 C6         25.1244    2.0561   13.0504 C.ar    1  lig         0.1292
     18 C7         24.8008    7.4409   13.2904 C.2     1  lig         0.9321
     19 C8         23.8775    5.7251   14.8421 C.3     1  lig        -0.0452
     20 C9         23.5341    6.8548   13.8706 C.3     1  lig        -0.0740
     21 N1         22.6705    6.2986   12.8296 N.4     1  lig        -0.8252
     22 O1         25.2743    8.3751   13.9335 O.co2   1  lig        -0.7573
     23 O2         25.3262    7.0363   12.2138 O.co2   1  lig        -0.7573
     24 O3         25.4301    0.9293   12.5424 O.3     1  lig        -0.4913
@<TRIPOS>BOND
     1     1    12    1
     2     2    13    1
     3     3    14    1
     4     4    15    1
     5     5    19    1
     6     6    19    1
     7     7    20    1
     8     8    21    1
     9     9    21    1
    10    10    21    1
    11    11    24    1
    12    12    14   ar
    13    12    16   ar
    14    13    15   ar
    15    13    16   ar
    16    14    17   ar
    17    15    17   ar
    18    16    19    1
    19    17    24    1
    20    18    20    1
    21    18    22    1
    22    18    23    1
    23    19    20    1
    24    20    21    1
@<TRIPOS>SUBSTRUCTURE
     1 lig         1 TEMP              0 ****  ****    0 ROOT


########## Name:		ligand
########## HA_RMSDs:		13.8866
########## HA_RMSDh:		13.8111
########## HA_RMSDm:		10.5823
########## Cluster Size:	1
##########    Grid Score:          -13.419714
##########      Grid_vdw:          -12.685209
##########       Grid_es:           -0.734505
##########    Int_energy:            5.344440

@<TRIPOS>MOLECULE
ligand
 24 24 1 0 0
SMALL
No Charge or Current Charge


@<TRIPOS>ATOM
      1 H1         16.1164   18.4142   29.5599 H       1  lig         0.1340
      2 H2         17.8001   15.9240   32.5898 H       1  lig         0.1340
      3 H3         18.3051   18.5303   28.4899 H       1  lig         0.1475
      4 H4         20.0244   16.0780   31.5418 H       1  lig         0.1475
      5 H5         15.5392   17.5662   32.7986 H       1  lig         0.0877
      6 H6         14.7268   17.6942   31.2708 H       1  lig         0.0877
      7 H7         13.8140   15.6911   31.9651 H       1  lig         0.0966
      8 H8         15.0295   15.7528   34.0877 H       1  lig         0.4431
      9 H9         15.0704   14.2037   33.4945 H       1  lig         0.4431
     10 H10        16.4089   15.1832   33.3402 H       1  lig         0.4431
     11 H11        21.1418   17.3784   29.9917 H       1  lig         0.4214
     12 C1         16.9651   17.9032   30.0076 C.ar    1  lig        -0.0999
     13 C2         17.9233   16.5103   31.6821 C.ar    1  lig        -0.0999
     14 C3         18.1923   17.9622   29.4067 C.ar    1  lig        -0.1787
     15 C4         19.1761   16.5960   31.1056 C.ar    1  lig        -0.1787
     16 C5         16.8267   17.1811   31.1531 C.ar    1  lig        -0.1394
     17 C6         19.2948   17.3554   29.9475 C.ar    1  lig         0.1292
     18 C7         15.3693   14.7908   30.8617 C.2     1  lig         0.9321
     19 C8         15.4642   17.0906   31.8137 C.3     1  lig        -0.0452
     20 C9         14.9045   15.6790   31.9930 C.3     1  lig        -0.0740
     21 N1         15.3593   15.1821   33.2911 N.4     1  lig        -0.8252
     22 O1         14.6233   14.7727   29.8851 O.co2   1  lig        -0.7573
     23 O2         16.4212   14.0910   30.9125 O.co2   1  lig        -0.7573
     24 O3         20.4006   17.4408   29.3220 O.3     1  lig        -0.4913
@<TRIPOS>BOND
     1     1    12    1
     2     2    13    1
     3     3    14    1
     4     4    15    1
     5     5    19    1
     6     6    19    1
     7     7    20    1
     8     8    21    1
     9     9    21    1
    10    10    21    1
    11    11    24    1
    12    12    14   ar
    13    12    16   ar
    14    13    15   ar
    15    13    16   ar
    16    14    17   ar
    17    15    17   ar
    18    16    19    1
    19    17    24    1
    20    18    20    1
    21    18    22    1
    22    18    23    1
    23    19    20    1
    24    20    21    1
@<TRIPOS>SUBSTRUCTURE
     1 lig         1 TEMP              0 ****  ****    0 ROOT


########## Name:		ligand
########## HA_RMSDs:		11.4764
########## HA_RMSDh:		11.3890
########## HA_RMSDm:		8.1011
########## Cluster Size:	1
##########    Grid Score:          -13.278279
##########      Grid_vdw:          -11.629590
##########       Grid_es:           -1.648689
##########    Int_energy:            1.636294

@<TRIPOS>MOLECULE
ligand
 24 24 1 0 0
SMALL
No Charge or Current Charge


@<TRIPOS>ATOM
      1 H1         17.4194   13.6771   26.5531 H       1  lig         0.1340
      2 H2         17.9162   16.8121   29.4063 H       1  lig         0.1340
      3 H3         16.3474   15.2674   25.0463 H       1  lig         0.1475
      4 H4         16.7896   18.4121   27.9097 H       1  lig         0.1475
      5 H5         18.1235   14.4313   30.0425 H       1  lig         0.0877
      6 H6         17.9954   13.1479   28.8820 H       1  lig         0.0877
      7 H7         20.3598   15.0785   29.1073 H       1  lig         0.0966
      8 H8         19.9254   14.3049   26.8270 H       1  lig         0.4431
      9 H9         21.2815   13.5399   27.4004 H       1  lig         0.4431
     10 H10        19.8293   12.7252   27.3571 H       1  lig         0.4431
     11 H11        16.0282   17.2803   24.6242 H       1  lig         0.4214
     12 C1         17.2820   14.7094   26.8649 C.ar    1  lig        -0.0999
     13 C2         17.5552   16.4741   28.4378 C.ar    1  lig        -0.0999
     14 C3         16.6861   15.6045   26.0198 C.ar    1  lig        -0.1787
     15 C4         16.9187   17.3774   27.6083 C.ar    1  lig        -0.1787
     16 C5         17.7139   15.1397   28.0820 C.ar    1  lig        -0.1394
     17 C6         16.4697   16.9084   26.3794 C.ar    1  lig         0.1292
     18 C7         20.4707   13.1536   29.9614 C.2     1  lig         0.9321
     19 C8         18.3972   14.1594   29.0164 C.3     1  lig        -0.0452
     20 C9         19.9217   14.0977   28.9164 C.3     1  lig        -0.0740
     21 N1         20.2611   13.6608   27.5627 N.4     1  lig        -0.8252
     22 O1         20.6935   13.6718   31.0534 O.co2   1  lig        -0.7573
     23 O2         20.7175   11.9339   29.7375 O.co2   1  lig        -0.7573
     24 O3         15.9234   17.6869   25.5327 O.3     1  lig        -0.4913
@<TRIPOS>BOND
     1     1    12    1
     2     2    13    1
     3     3    14    1
     4     4    15    1
     5     5    19    1
     6     6    19    1
     7     7    20    1
     8     8    21    1
     9     9    21    1
    10    10    21    1
    11    11    24    1
    12    12    14   ar
    13    12    16   ar
    14    13    15   ar
    15    13    16   ar
    16    14    17   ar
    17    15    17   ar
    18    16    19    1
    19    17    24    1
    20    18    20    1
    21    18    22    1
    22    18    23    1
    23    19    20    1
    24    20    21    1
@<TRIPOS>SUBSTRUCTURE
     1 lig         1 TEMP              0 ****  ****    0 ROOT


########## Name:		ligand
########## HA_RMSDs:		13.4136
########## HA_RMSDh:		13.3543
########## HA_RMSDm:		11.1752
########## Cluster Size:	1
##########    Grid Score:          -13.271378
##########      Grid_vdw:          -14.090894
##########       Grid_es:            0.819516
##########    Int_energy:            3.111181

@<TRIPOS>MOLECULE
ligand
 24 24 1 0 0
SMALL
No Charge or Current Charge


@<TRIPOS>ATOM
      1 H1          9.4605    8.5214   21.6480 H       1  lig         0.1340
      2 H2         10.7807    9.7492   25.5165 H       1  lig         0.1340
      3 H3         11.2422    9.8588   20.6553 H       1  lig         0.1475
      4 H4         12.5512   11.1416   24.5186 H       1  lig         0.1475
      5 H5          8.7060    7.3820   23.5942 H       1  lig         0.0877
      6 H6          9.2476    7.7633   25.1979 H       1  lig         0.0877
      7 H7          6.7480    8.2411   24.5365 H       1  lig         0.0966
      8 H8          7.3290    9.5293   22.5391 H       1  lig         0.4431
      9 H9          6.5353   10.5245   23.6033 H       1  lig         0.4431
     10 H10         8.1926   10.6172   23.4645 H       1  lig         0.4431
     11 H11        13.5585   11.5485   22.6039 H       1  lig         0.4214
     12 C1         10.1263    9.0953   22.2875 C.ar    1  lig        -0.0999
     13 C2         10.8842    9.7869   24.4346 C.ar    1  lig        -0.0999
     14 C3         11.1297    9.8418   21.7338 C.ar    1  lig        -0.1787
     15 C4         11.8760   10.5760   23.8843 C.ar    1  lig        -0.1787
     16 C5          9.9952    9.0699   23.6422 C.ar    1  lig        -0.1394
     17 C6         11.9764   10.6001   22.4982 C.ar    1  lig         0.1292
     18 C7          7.6146    9.5863   25.9100 C.2     1  lig         0.9321
     19 C8          8.9001    8.2261   24.2663 C.3     1  lig        -0.0452
     20 C9          7.5798    8.9469   24.5408 C.3     1  lig        -0.0740
     21 N1          7.3885    9.9412   23.4855 N.4     1  lig        -0.8252
     22 O1          8.1174   10.7074   25.9392 O.co2   1  lig        -0.7573
     23 O2          7.1944    9.0146   26.9566 O.co2   1  lig        -0.7573
     24 O3         12.8969   11.2563   21.9121 O.3     1  lig        -0.4913
@<TRIPOS>BOND
     1     1    12    1
     2     2    13    1
     3     3    14    1
     4     4    15    1
     5     5    19    1
     6     6    19    1
     7     7    20    1
     8     8    21    1
     9     9    21    1
    10    10    21    1
    11    11    24    1
    12    12    14   ar
    13    12    16   ar
    14    13    15   ar
    15    13    16   ar
    16    14    17   ar
    17    15    17   ar
    18    16    19    1
    19    17    24    1
    20    18    20    1
    21    18    22    1
    22    18    23    1
    23    19    20    1
    24    20    21    1
@<TRIPOS>SUBSTRUCTURE
     1 lig         1 TEMP              0 ****  ****    0 ROOT


########## Name:		ligand
########## HA_RMSDs:		12.8698
########## HA_RMSDh:		12.8471
########## HA_RMSDm:		10.9554
########## Cluster Size:	1
##########    Grid Score:          -13.254471
##########      Grid_vdw:          -11.067743
##########       Grid_es:           -2.186728
##########    Int_energy:            3.110255

@<TRIPOS>MOLECULE
ligand
 24 24 1 0 0
SMALL
No Charge or Current Charge


@<TRIPOS>ATOM
      1 H1         15.6483   13.5981   29.9673 H       1  lig         0.1340
      2 H2         18.6666   16.5694   30.4943 H       1  lig         0.1340
      3 H3         14.4834   14.4874   31.9169 H       1  lig         0.1475
      4 H4         17.5212   17.4409   32.4938 H       1  lig         0.1475
      5 H5         18.7856   15.1612   28.6718 H       1  lig         0.0877
      6 H6         18.4501   13.5203   29.1250 H       1  lig         0.0877
      7 H7         16.2925   13.5987   27.8277 H       1  lig         0.0966
      8 H8         18.3932   12.8792   26.7998 H       1  lig         0.4431
      9 H9         17.4933   13.6878   25.6643 H       1  lig         0.4431
     10 H10        18.7688   14.4579   26.4090 H       1  lig         0.4431
     11 H11        14.2885   16.1966   33.1656 H       1  lig         0.4214
     12 C1         16.0724   14.4358   30.5151 C.ar    1  lig        -0.0999
     13 C2         17.7398   16.1053   30.8235 C.ar    1  lig        -0.0999
     14 C3         15.4185   14.9399   31.6055 C.ar    1  lig        -0.1787
     15 C4         17.1084   16.5971   31.9500 C.ar    1  lig        -0.1787
     16 C5         17.2410   15.0133   30.1229 C.ar    1  lig        -0.1394
     17 C6         15.9273   15.9775   32.3409 C.ar    1  lig         0.1292
     18 C7         16.4709   15.6239   27.2679 C.2     1  lig         0.9321
     19 C8         17.9610   14.4760   28.9007 C.3     1  lig        -0.0452
     20 C9         17.1043   14.3046   27.6458 C.3     1  lig        -0.0740
     21 N1         17.9703   13.7973   26.5822 N.4     1  lig        -0.8252
     22 O1         17.2084   16.5996   27.3896 O.co2   1  lig        -0.7573
     23 O2         15.2706   15.7366   26.8867 O.co2   1  lig        -0.7573
     24 O3         15.2532   16.4032   33.3338 O.3     1  lig        -0.4913
@<TRIPOS>BOND
     1     1    12    1
     2     2    13    1
     3     3    14    1
     4     4    15    1
     5     5    19    1
     6     6    19    1
     7     7    20    1
     8     8    21    1
     9     9    21    1
    10    10    21    1
    11    11    24    1
    12    12    14   ar
    13    12    16   ar
    14    13    15   ar
    15    13    16   ar
    16    14    17   ar
    17    15    17   ar
    18    16    19    1
    19    17    24    1
    20    18    20    1
    21    18    22    1
    22    18    23    1
    23    19    20    1
    24    20    21    1
@<TRIPOS>SUBSTRUCTURE
     1 lig         1 TEMP              0 ****  ****    0 ROOT


########## Name:		ligand
########## HA_RMSDs:		15.8528
########## HA_RMSDh:		15.7905
########## HA_RMSDm:		14.0331
########## Cluster Size:	1
##########    Grid Score:          -13.236862
##########      Grid_vdw:          -11.192324
##########       Grid_es:           -2.044539
##########    Int_energy:            3.010849

@<TRIPOS>MOLECULE
ligand
 24 24 1 0 0
SMALL
No Charge or Current Charge


@<TRIPOS>ATOM
      1 H1          8.1372    9.2962   29.9240 H       1  lig         0.1340
      2 H2         11.7195   10.2307   27.8005 H       1  lig         0.1340
      3 H3          8.3322    6.9867   29.1642 H       1  lig         0.1475
      4 H4         11.8953    7.9114   26.9887 H       1  lig         0.1475
      5 H5          9.2204   11.3410   30.3076 H       1  lig         0.0877
      6 H6         10.7816   11.7348   29.6610 H       1  lig         0.0877
      7 H7          8.7051   13.1692   28.9415 H       1  lig         0.0966
      8 H8          7.3575   11.2352   28.2853 H       1  lig         0.4431
      9 H9          7.6235   12.1788   26.9467 H       1  lig         0.4431
     10 H10         8.5091   10.7849   27.1642 H       1  lig         0.4431
     11 H11         9.5357    5.5655   28.2931 H       1  lig         0.4214
     12 C1          8.9614    9.0076   29.2766 C.ar    1  lig        -0.0999
     13 C2         10.9642    9.5044   28.0915 C.ar    1  lig        -0.0999
     14 C3          9.0762    7.7121   28.8535 C.ar    1  lig        -0.1787
     15 C4         11.0679    8.2077   27.6256 C.ar    1  lig        -0.1787
     16 C5          9.9029    9.9120   28.8914 C.ar    1  lig        -0.1394
     17 C6         10.0832    7.3084   28.0173 C.ar    1  lig         0.1292
     18 C7         10.1881   12.8983   27.4670 C.2     1  lig         0.9321
     19 C8          9.7968   11.3458   29.3751 C.3     1  lig        -0.0452
     20 C9          9.1457   12.3295   28.4022 C.3     1  lig        -0.0740
     21 N1          8.1024   11.6090   27.6734 N.4     1  lig        -0.8252
     22 O1         11.0128   13.6335   28.0055 O.co2   1  lig        -0.7573
     23 O2         10.2055   12.6725   26.2230 O.co2   1  lig        -0.7573
     24 O3         10.1338    6.0820   27.6789 O.3     1  lig        -0.4913
@<TRIPOS>BOND
     1     1    12    1
     2     2    13    1
     3     3    14    1
     4     4    15    1
     5     5    19    1
     6     6    19    1
     7     7    20    1
     8     8    21    1
     9     9    21    1
    10    10    21    1
    11    11    24    1
    12    12    14   ar
    13    12    16   ar
    14    13    15   ar
    15    13    16   ar
    16    14    17   ar
    17    15    17   ar
    18    16    19    1
    19    17    24    1
    20    18    20    1
    21    18    22    1
    22    18    23    1
    23    19    20    1
    24    20    21    1
@<TRIPOS>SUBSTRUCTURE
     1 lig         1 TEMP              0 ****  ****    0 ROOT


########## Name:		ligand
########## HA_RMSDs:		13.8439
########## HA_RMSDh:		13.7683
########## HA_RMSDm:		11.9186
########## Cluster Size:	1
##########    Grid Score:          -13.231195
##########      Grid_vdw:          -12.682500
##########       Grid_es:           -0.548695
##########    Int_energy:            3.138515

@<TRIPOS>MOLECULE
ligand
 24 24 1 0 0
SMALL
No Charge or Current Charge


@<TRIPOS>ATOM
      1 H1          9.1027   11.1062   22.9700 H       1  lig         0.1340
      2 H2         10.5300    8.0348   25.5671 H       1  lig         0.1340
      3 H3          6.8762   10.1170   23.0829 H       1  lig         0.1475
      4 H4          8.2949    7.0018   25.6455 H       1  lig         0.1475
      5 H5         12.0751    9.4297   24.2803 H       1  lig         0.0877
      6 H6         11.5360   10.6796   23.2044 H       1  lig         0.0877
      7 H7         12.6145   11.7514   25.0871 H       1  lig         0.0966
      8 H8         12.3578    9.8759   26.6373 H       1  lig         0.4431
      9 H9         11.7882   11.2528   27.3672 H       1  lig         0.4431
     10 H10        10.7140   10.1497   26.7318 H       1  lig         0.4431
     11 H11         6.2650    7.1752   24.8377 H       1  lig         0.4214
     12 C1          8.9408   10.2040   23.5544 C.ar    1  lig        -0.0999
     13 C2          9.7132    8.4865   25.0091 C.ar    1  lig        -0.0999
     14 C3          7.6921    9.6503   23.6238 C.ar    1  lig        -0.1787
     15 C4          8.4648    7.8958   25.0541 C.ar    1  lig        -0.1787
     16 C5          9.9595    9.6197   24.2426 C.ar    1  lig        -0.1394
     17 C6          7.4464    8.5007   24.3269 C.ar    1  lig         0.1292
     18 C7         10.6095   12.3938   25.2052 C.2     1  lig         0.9321
     19 C8         11.3427   10.2404   24.1906 C.3     1  lig        -0.0452
     20 C9         11.6411   11.2905   25.2612 C.3     1  lig        -0.0740
     21 N1         11.6397   10.6155   26.5585 N.4     1  lig        -0.8252
     22 O1         10.8052   13.2342   24.3300 O.co2   1  lig        -0.7573
     23 O2          9.6357   12.4784   26.0074 O.co2   1  lig        -0.7573
     24 O3          6.2545    8.0538   24.3586 O.3     1  lig        -0.4913
@<TRIPOS>BOND
     1     1    12    1
     2     2    13    1
     3     3    14    1
     4     4    15    1
     5     5    19    1
     6     6    19    1
     7     7    20    1
     8     8    21    1
     9     9    21    1
    10    10    21    1
    11    11    24    1
    12    12    14   ar
    13    12    16   ar
    14    13    15   ar
    15    13    16   ar
    16    14    17   ar
    17    15    17   ar
    18    16    19    1
    19    17    24    1
    20    18    20    1
    21    18    22    1
    22    18    23    1
    23    19    20    1
    24    20    21    1
@<TRIPOS>SUBSTRUCTURE
     1 lig         1 TEMP              0 ****  ****    0 ROOT


########## Name:		ligand
########## HA_RMSDs:		14.1974
########## HA_RMSDh:		14.1623
########## HA_RMSDm:		12.0538
########## Cluster Size:	1
##########    Grid Score:          -13.177639
##########      Grid_vdw:          -10.320808
##########       Grid_es:           -2.856831
##########    Int_energy:            2.561653

@<TRIPOS>MOLECULE
ligand
 24 24 1 0 0
SMALL
No Charge or Current Charge


@<TRIPOS>ATOM
      1 H1         27.7581    5.6484   16.7341 H       1  lig         0.1340
      2 H2         24.7551    7.1729   19.3557 H       1  lig         0.1340
      3 H3         29.4287    6.9388   17.9559 H       1  lig         0.1475
      4 H4         26.4295    8.5177   20.5628 H       1  lig         0.1475
      5 H5         25.6143    4.6622   16.7768 H       1  lig         0.0877
      6 H6         24.3743    5.1104   17.9047 H       1  lig         0.0877
      7 H7         23.7544    7.0758   16.5076 H       1  lig         0.0966
      8 H8         22.7939    4.8733   16.0456 H       1  lig         0.4431
      9 H9         22.9781    5.6864   14.6111 H       1  lig         0.4431
     10 H10        24.0707    4.5033   15.0364 H       1  lig         0.4431
     11 H11        29.6387    7.7773   20.2333 H       1  lig         0.4214
     12 C1         27.4530    6.2775   17.5664 C.ar    1  lig        -0.0999
     13 C2         25.7963    7.1341   19.0443 C.ar    1  lig        -0.0999
     14 C3         28.3884    6.9979   18.2568 C.ar    1  lig        -0.1787
     15 C4         26.7269    7.8971   19.7235 C.ar    1  lig        -0.1787
     16 C5         26.1500    6.3477   17.9539 C.ar    1  lig        -0.1394
     17 C6         28.0472    7.8227   19.2957 C.ar    1  lig         0.1292
     18 C7         25.3486    6.8978   15.1388 C.2     1  lig         0.9321
     19 C8         25.1090    5.5338   17.2091 C.3     1  lig        -0.0452
     20 C9         24.3620    6.2687   16.0956 C.3     1  lig        -0.0740
     21 N1         23.5010    5.2975   15.4219 N.4     1  lig        -0.8252
     22 O1         25.6578    8.0560   15.4099 O.co2   1  lig        -0.7573
     23 O2         25.8040    6.3057   14.1185 O.co2   1  lig        -0.7573
     24 O3         28.9758    8.4495   19.9009 O.3     1  lig        -0.4913
@<TRIPOS>BOND
     1     1    12    1
     2     2    13    1
     3     3    14    1
     4     4    15    1
     5     5    19    1
     6     6    19    1
     7     7    20    1
     8     8    21    1
     9     9    21    1
    10    10    21    1
    11    11    24    1
    12    12    14   ar
    13    12    16   ar
    14    13    15   ar
    15    13    16   ar
    16    14    17   ar
    17    15    17   ar
    18    16    19    1
    19    17    24    1
    20    18    20    1
    21    18    22    1
    22    18    23    1
    23    19    20    1
    24    20    21    1
@<TRIPOS>SUBSTRUCTURE
     1 lig         1 TEMP              0 ****  ****    0 ROOT


########## Name:		ligand
########## HA_RMSDs:		11.8205
########## HA_RMSDh:		11.7545
########## HA_RMSDm:		8.4010
########## Cluster Size:	1
##########    Grid Score:          -13.168776
##########      Grid_vdw:          -11.278236
##########       Grid_es:           -1.890539
##########    Int_energy:            1.652670

@<TRIPOS>MOLECULE
ligand
 24 24 1 0 0
SMALL
No Charge or Current Charge


@<TRIPOS>ATOM
      1 H1         14.2807   12.8280   28.1635 H       1  lig         0.1340
      2 H2         17.6121   15.2106   26.9630 H       1  lig         0.1340
      3 H3         13.9374   12.1981   25.8324 H       1  lig         0.1475
      4 H4         17.2405   14.6182   24.6008 H       1  lig         0.1475
      5 H5         15.5676   13.7947   29.7761 H       1  lig         0.0877
      6 H6         17.2142   14.2399   29.4578 H       1  lig         0.0877
      7 H7         16.4675   16.5960   28.9313 H       1  lig         0.0966
      8 H8         17.1478   15.9135   31.1803 H       1  lig         0.4431
      9 H9         15.9269   17.0298   31.3082 H       1  lig         0.4431
     10 H10        15.5931   15.4121   31.5229 H       1  lig         0.4431
     11 H11        16.0010   13.3872   23.2926 H       1  lig         0.4214
     12 C1         14.9320   13.2320   27.3926 C.ar    1  lig        -0.0999
     13 C2         16.7902   14.5482   26.7016 C.ar    1  lig        -0.0999
     14 C3         14.7451   12.8762   26.0852 C.ar    1  lig        -0.1787
     15 C4         16.5859   14.2272   25.3733 C.ar    1  lig        -0.1787
     16 C5         15.9530   14.0760   27.7059 C.ar    1  lig        -0.1394
     17 C6         15.5248   13.3794   25.0778 C.ar    1  lig         0.1292
     18 C7         14.4132   16.2099   29.2101 C.2     1  lig         0.9321
     19 C8         16.1825   14.4575   29.1559 C.3     1  lig        -0.0452
     20 C9         15.8611   15.9071   29.5211 C.3     1  lig        -0.0740
     21 N1         16.1560   16.0832   30.9426 N.4     1  lig        -0.8252
     22 O1         14.2395   16.9247   28.2255 O.co2   1  lig        -0.7573
     23 O2         13.4481   15.7964   29.9146 O.co2   1  lig        -0.7573
     24 O3         15.3009   12.9890   23.8867 O.3     1  lig        -0.4913
@<TRIPOS>BOND
     1     1    12    1
     2     2    13    1
     3     3    14    1
     4     4    15    1
     5     5    19    1
     6     6    19    1
     7     7    20    1
     8     8    21    1
     9     9    21    1
    10    10    21    1
    11    11    24    1
    12    12    14   ar
    13    12    16   ar
    14    13    15   ar
    15    13    16   ar
    16    14    17   ar
    17    15    17   ar
    18    16    19    1
    19    17    24    1
    20    18    20    1
    21    18    22    1
    22    18    23    1
    23    19    20    1
    24    20    21    1
@<TRIPOS>SUBSTRUCTURE
     1 lig         1 TEMP              0 ****  ****    0 ROOT


########## Name:		ligand
########## HA_RMSDs:		12.7850
########## HA_RMSDh:		12.7360
########## HA_RMSDm:		8.5623
########## Cluster Size:	1
##########    Grid Score:          -13.129601
##########      Grid_vdw:          -13.878779
##########       Grid_es:            0.749178
##########    Int_energy:            2.675849

@<TRIPOS>MOLECULE
ligand
 24 24 1 0 0
SMALL
No Charge or Current Charge


@<TRIPOS>ATOM
      1 H1         17.1030   18.4359   28.8701 H       1  lig         0.1340
      2 H2         13.6732   15.8958   28.8538 H       1  lig         0.1340
      3 H3         17.6661   17.6293   26.6382 H       1  lig         0.1475
      4 H4         14.2633   15.0399   26.6204 H       1  lig         0.1475
      5 H5         15.2814   18.7693   30.4394 H       1  lig         0.0877
      6 H6         13.9139   17.7056   30.5336 H       1  lig         0.0877
      7 H7         15.5107   15.9001   31.4715 H       1  lig         0.0966
      8 H8         14.0018   17.2649   32.8308 H       1  lig         0.4431
      9 H9         15.4214   17.0501   33.6623 H       1  lig         0.4431
     10 H10        15.1286   18.4949   32.8869 H       1  lig         0.4431
     11 H11        17.2250   16.4056   25.0935 H       1  lig         0.4214
     12 C1         16.4764   17.6876   28.3914 C.ar    1  lig        -0.0999
     13 C2         14.5659   16.2693   28.3576 C.ar    1  lig        -0.0999
     14 C3         16.7867   17.2376   27.1377 C.ar    1  lig        -0.1787
     15 C4         14.8921   15.7782   27.1079 C.ar    1  lig        -0.1787
     16 C5         15.3664   17.1998   29.0102 C.ar    1  lig        -0.1394
     17 C6         16.0408   16.2780   26.5060 C.ar    1  lig         0.1292
     18 C7         17.1420   17.2327   31.5714 C.2     1  lig         0.9321
     19 C8         15.0013   17.7105   30.3910 C.3     1  lig        -0.0452
     20 C9         15.6521   16.9778   31.5647 C.3     1  lig        -0.0740
     21 N1         15.0175   17.4543   32.7931 N.4     1  lig        -0.8252
     22 O1         17.8032   16.4216   30.9268 O.co2   1  lig        -0.7573
     23 O2         17.6839   18.1799   32.2101 O.co2   1  lig        -0.7573
     24 O3         16.3827   15.9209   25.3326 O.3     1  lig        -0.4913
@<TRIPOS>BOND
     1     1    12    1
     2     2    13    1
     3     3    14    1
     4     4    15    1
     5     5    19    1
     6     6    19    1
     7     7    20    1
     8     8    21    1
     9     9    21    1
    10    10    21    1
    11    11    24    1
    12    12    14   ar
    13    12    16   ar
    14    13    15   ar
    15    13    16   ar
    16    14    17   ar
    17    15    17   ar
    18    16    19    1
    19    17    24    1
    20    18    20    1
    21    18    22    1
    22    18    23    1
    23    19    20    1
    24    20    21    1
@<TRIPOS>SUBSTRUCTURE
     1 lig         1 TEMP              0 ****  ****    0 ROOT


########## Name:		ligand
########## HA_RMSDs:		10.9520
########## HA_RMSDh:		10.9050
########## HA_RMSDm:		8.9205
########## Cluster Size:	1
##########    Grid Score:          -13.105074
##########      Grid_vdw:           -7.789489
##########       Grid_es:           -5.315585
##########    Int_energy:            3.678321

@<TRIPOS>MOLECULE
ligand
 24 24 1 0 0
SMALL
No Charge or Current Charge


@<TRIPOS>ATOM
      1 H1         14.9710   12.6771   26.6467 H       1  lig         0.1340
      2 H2         15.6517    8.8285   24.9319 H       1  lig         0.1340
      3 H3         12.6112   12.1109   26.8910 H       1  lig         0.1475
      4 H4         13.2607    8.2690   25.1297 H       1  lig         0.1475
      5 H5         17.1960   11.7942   26.4501 H       1  lig         0.0877
      6 H6         17.5467   10.2438   25.7545 H       1  lig         0.0877
      7 H7         18.1425   11.2684   23.8244 H       1  lig         0.0966
      8 H8         18.5925   13.1977   25.2605 H       1  lig         0.4431
      9 H9         18.0318   13.7417   23.7968 H       1  lig         0.4431
     10 H10        17.0098   13.7062   25.1116 H       1  lig         0.4431
     11 H11        11.4006    9.7682   27.1593 H       1  lig         0.4214
     12 C1         14.6084   11.7110   26.3048 C.ar    1  lig        -0.0999
     13 C2         14.9663    9.5574   25.3580 C.ar    1  lig        -0.0999
     14 C3         13.2866   11.3888   26.4455 C.ar    1  lig        -0.1787
     15 C4         13.6260    9.2367   25.4586 C.ar    1  lig        -0.1787
     16 C5         15.4538   10.7976   25.7536 C.ar    1  lig        -0.1394
     17 C6         12.7804   10.1941   26.0068 C.ar    1  lig         0.1292
     18 C7         16.1655   11.8238   23.3449 C.2     1  lig         0.9321
     19 C8         16.9258   11.1371   25.6153 C.3     1  lig        -0.0452
     20 C9         17.3315   11.8161   24.3067 C.3     1  lig        -0.0740
     21 N1         17.7748   13.1721   24.6284 N.4     1  lig        -0.8252
     22 O1         16.1352   10.8711   22.5690 O.co2   1  lig        -0.7573
     23 O2         15.3004   12.7451   23.3063 O.co2   1  lig        -0.7573
     24 O3         11.5421    9.9587   26.1870 O.3     1  lig        -0.4913
@<TRIPOS>BOND
     1     1    12    1
     2     2    13    1
     3     3    14    1
     4     4    15    1
     5     5    19    1
     6     6    19    1
     7     7    20    1
     8     8    21    1
     9     9    21    1
    10    10    21    1
    11    11    24    1
    12    12    14   ar
    13    12    16   ar
    14    13    15   ar
    15    13    16   ar
    16    14    17   ar
    17    15    17   ar
    18    16    19    1
    19    17    24    1
    20    18    20    1
    21    18    22    1
    22    18    23    1
    23    19    20    1
    24    20    21    1
@<TRIPOS>SUBSTRUCTURE
     1 lig         1 TEMP              0 ****  ****    0 ROOT


########## Name:		ligand
########## HA_RMSDs:		11.4531
########## HA_RMSDh:		11.3952
########## HA_RMSDm:		9.4582
########## Cluster Size:	1
##########    Grid Score:          -13.069308
##########      Grid_vdw:          -11.281094
##########       Grid_es:           -1.788215
##########    Int_energy:            2.539571

@<TRIPOS>MOLECULE
ligand
 24 24 1 0 0
SMALL
No Charge or Current Charge


@<TRIPOS>ATOM
      1 H1         17.4273   13.2379   28.9389 H       1  lig         0.1340
      2 H2         17.4703   17.4602   28.3177 H       1  lig         0.1340
      3 H3         16.6227   13.6167   31.2100 H       1  lig         0.1475
      4 H4         16.7055   17.8518   30.6266 H       1  lig         0.1475
      5 H5         17.8920   16.0390   26.5284 H       1  lig         0.0877
      6 H6         19.0820   14.8930   27.0587 H       1  lig         0.0877
      7 H7         16.9075   13.2268   26.9787 H       1  lig         0.0966
      8 H8         19.0645   12.9667   25.8533 H       1  lig         0.4431
      9 H9         17.8531   12.6582   24.7622 H       1  lig         0.4431
     10 H10        18.6424   14.1247   24.7278 H       1  lig         0.4431
     11 H11        16.0144   16.8199   32.4242 H       1  lig         0.4214
     12 C1         17.2795   14.2532   29.2980 C.ar    1  lig        -0.0999
     13 C2         17.2886   16.6103   28.9714 C.ar    1  lig        -0.0999
     14 C3         16.8232   14.4684   30.5693 C.ar    1  lig        -0.1787
     15 C4         16.8662   16.8405   30.2667 C.ar    1  lig        -0.1787
     16 C5         17.5206   15.3253   28.4946 C.ar    1  lig        -0.1394
     17 C6         16.6460   15.7298   31.0727 C.ar    1  lig         0.1292
     18 C7         16.0962   14.5647   25.5649 C.2     1  lig         0.9321
     19 C8         18.0043   15.0956   27.0754 C.3     1  lig        -0.0452
     20 C9         17.2867   13.9911   26.2988 C.3     1  lig        -0.0740
     21 N1         18.2534   13.3958   25.3770 N.4     1  lig        -0.8252
     22 O1         15.3114   15.1918   26.2730 O.co2   1  lig        -0.7573
     23 O2         15.8919   14.3948   24.3287 O.co2   1  lig        -0.7573
     24 O3         16.2026   15.8507   32.2602 O.3     1  lig        -0.4913
@<TRIPOS>BOND
     1     1    12    1
     2     2    13    1
     3     3    14    1
     4     4    15    1
     5     5    19    1
     6     6    19    1
     7     7    20    1
     8     8    21    1
     9     9    21    1
    10    10    21    1
    11    11    24    1
    12    12    14   ar
    13    12    16   ar
    14    13    15   ar
    15    13    16   ar
    16    14    17   ar
    17    15    17   ar
    18    16    19    1
    19    17    24    1
    20    18    20    1
    21    18    22    1
    22    18    23    1
    23    19    20    1
    24    20    21    1
@<TRIPOS>SUBSTRUCTURE
     1 lig         1 TEMP              0 ****  ****    0 ROOT


########## Name:		ligand
########## HA_RMSDs:		12.0637
########## HA_RMSDh:		12.0637
########## HA_RMSDm:		9.5678
########## Cluster Size:	1
##########    Grid Score:          -13.059930
##########      Grid_vdw:          -13.384548
##########       Grid_es:            0.324618
##########    Int_energy:            3.160794

@<TRIPOS>MOLECULE
ligand
 24 24 1 0 0
SMALL
No Charge or Current Charge


@<TRIPOS>ATOM
      1 H1         13.8567   15.1065   30.5891 H       1  lig         0.1340
      2 H2         16.2250   15.0168   27.0396 H       1  lig         0.1340
      3 H3         14.0467   17.5381   30.6110 H       1  lig         0.1475
      4 H4         16.4627   17.4684   27.0837 H       1  lig         0.1475
      5 H5         15.8643   12.9895   28.4233 H       1  lig         0.0877
      6 H6         14.8260   12.9946   29.8134 H       1  lig         0.0877
      7 H7         13.8345   11.7566   27.8825 H       1  lig         0.0966
      8 H8         14.7837   13.1829   26.1357 H       1  lig         0.4431
      9 H9         13.1346   13.1466   25.9568 H       1  lig         0.4431
     10 H10        13.8607   14.4727   26.6558 H       1  lig         0.4431
     11 H11        14.5573   19.2265   29.5326 H       1  lig         0.4214
     12 C1         14.4354   15.6107   29.8193 C.ar    1  lig        -0.0999
     13 C2         15.7513   15.5849   27.8368 C.ar    1  lig        -0.0999
     14 C3         14.5391   16.9745   29.8261 C.ar    1  lig        -0.1787
     15 C4         15.8960   16.9589   27.8565 C.ar    1  lig        -0.1787
     16 C5         15.0475   14.9087   28.8266 C.ar    1  lig        -0.1394
     17 C6         15.2778   17.6506   28.8915 C.ar    1  lig         0.1292
     18 C7         12.4462   13.1815   28.5818 C.2     1  lig         0.9321
     19 C8         14.9182   13.3976   28.7976 C.3     1  lig        -0.0452
     20 C9         13.7753   12.8441   27.9459 C.3     1  lig        -0.0740
     21 N1         13.8964   13.4236   26.6087 N.4     1  lig        -0.8252
     22 O1         11.8000   14.0442   27.9911 O.co2   1  lig        -0.7573
     23 O2         12.0319   12.6521   29.6528 O.co2   1  lig        -0.7573
     24 O3         15.3142   18.9219   28.9531 O.3     1  lig        -0.4913
@<TRIPOS>BOND
     1     1    12    1
     2     2    13    1
     3     3    14    1
     4     4    15    1
     5     5    19    1
     6     6    19    1
     7     7    20    1
     8     8    21    1
     9     9    21    1
    10    10    21    1
    11    11    24    1
    12    12    14   ar
    13    12    16   ar
    14    13    15   ar
    15    13    16   ar
    16    14    17   ar
    17    15    17   ar
    18    16    19    1
    19    17    24    1
    20    18    20    1
    21    18    22    1
    22    18    23    1
    23    19    20    1
    24    20    21    1
@<TRIPOS>SUBSTRUCTURE
     1 lig         1 TEMP              0 ****  ****    0 ROOT


########## Name:		ligand
########## HA_RMSDs:		13.9546
########## HA_RMSDh:		13.9008
########## HA_RMSDm:		12.4121
########## Cluster Size:	1
##########    Grid Score:          -13.011887
##########      Grid_vdw:          -11.200303
##########       Grid_es:           -1.811583
##########    Int_energy:            1.702021

@<TRIPOS>MOLECULE
ligand
 24 24 1 0 0
SMALL
No Charge or Current Charge


@<TRIPOS>ATOM
      1 H1         24.4892    6.1459   16.7032 H       1  lig         0.1340
      2 H2         28.0839    7.9995   18.0663 H       1  lig         0.1340
      3 H3         24.8404    7.1589   14.5124 H       1  lig         0.1475
      4 H4         28.4182    9.0662   15.8710 H       1  lig         0.1475
      5 H5         25.5726    5.4114   18.7274 H       1  lig         0.0877
      6 H6         27.0117    6.1503   19.3548 H       1  lig         0.0877
      7 H7         24.1922    7.3273   19.4985 H       1  lig         0.0966
      8 H8         25.9136    9.0391   19.1931 H       1  lig         0.4431
      9 H9         25.3767    9.0967   20.7620 H       1  lig         0.4431
     10 H10        26.8320    8.3653   20.4132 H       1  lig         0.4431
     11 H11        27.6214    8.3579   13.5215 H       1  lig         0.4214
     12 C1         25.3501    6.7882   16.5361 C.ar    1  lig        -0.0999
     13 C2         27.3612    7.8254   17.2725 C.ar    1  lig        -0.0999
     14 C3         25.5524    7.3532   15.3071 C.ar    1  lig        -0.1787
     15 C4         27.5540    8.4335   16.0468 C.ar    1  lig        -0.1787
     16 C5         26.2517    7.0276   17.5274 C.ar    1  lig        -0.1394
     17 C6         26.6087    8.1887   15.0576 C.ar    1  lig         0.1292
     18 C7         25.0876    6.4314   21.1845 C.2     1  lig         0.9321
     19 C8         26.0483    6.3862   18.8868 C.3     1  lig        -0.0452
     20 C9         25.2045    7.1860   19.8800 C.3     1  lig        -0.0740
     21 N1         25.8483    8.4861   20.0643 N.4     1  lig        -0.8252
     22 O1         24.2704    5.5135   21.1738 O.co2   1  lig        -0.7573
     23 O2         25.7461    6.7282   22.2224 O.co2   1  lig        -0.7573
     24 O3         26.7401    8.6643   13.8838 O.3     1  lig        -0.4913
@<TRIPOS>BOND
     1     1    12    1
     2     2    13    1
     3     3    14    1
     4     4    15    1
     5     5    19    1
     6     6    19    1
     7     7    20    1
     8     8    21    1
     9     9    21    1
    10    10    21    1
    11    11    24    1
    12    12    14   ar
    13    12    16   ar
    14    13    15   ar
    15    13    16   ar
    16    14    17   ar
    17    15    17   ar
    18    16    19    1
    19    17    24    1
    20    18    20    1
    21    18    22    1
    22    18    23    1
    23    19    20    1
    24    20    21    1
@<TRIPOS>SUBSTRUCTURE
     1 lig         1 TEMP              0 ****  ****    0 ROOT


########## Name:		ligand
########## HA_RMSDs:		14.9840
########## HA_RMSDh:		14.9393
########## HA_RMSDm:		13.6186
########## Cluster Size:	1
##########    Grid Score:          -13.011152
##########      Grid_vdw:          -12.599798
##########       Grid_es:           -0.411354
##########    Int_energy:            4.463947

@<TRIPOS>MOLECULE
ligand
 24 24 1 0 0
SMALL
No Charge or Current Charge


@<TRIPOS>ATOM
      1 H1         10.2036    5.1391   22.0234 H       1  lig         0.1340
      2 H2          7.4973    7.6482   24.1673 H       1  lig         0.1340
      3 H3         12.0647    6.2645   23.1273 H       1  lig         0.1475
      4 H4          9.3738    8.8227   25.2483 H       1  lig         0.1475
      5 H5          7.9862    4.8234   21.7222 H       1  lig         0.0877
      6 H6          6.9486    5.1192   23.0810 H       1  lig         0.0877
      7 H7          6.1578    7.2511   22.0686 H       1  lig         0.0966
      8 H8          5.0922    5.1290   21.4786 H       1  lig         0.4431
      9 H9          5.0664    6.1256   20.1523 H       1  lig         0.4431
     10 H10         6.1878    4.8972   20.2409 H       1  lig         0.4431
     11 H11        12.6907    7.7343   24.3679 H       1  lig         0.4214
     12 C1         10.0083    5.9482   22.7226 C.ar    1  lig        -0.0999
     13 C2          8.5176    7.3529   23.9340 C.ar    1  lig        -0.0999
     14 C3         11.0498    6.5774   23.3472 C.ar    1  lig        -0.1787
     15 C4          9.5634    8.0222   24.5403 C.ar    1  lig        -0.1787
     16 C5          8.7361    6.3384   23.0090 C.ar    1  lig        -0.1394
     17 C6         10.8530    7.6178   24.2161 C.ar    1  lig         0.1292
     18 C7          7.5144    7.2576   20.4541 C.2     1  lig         0.9321
     19 C8          7.5738    5.6304   22.3390 C.3     1  lig        -0.0452
     20 C9          6.6770    6.5063   21.4636 C.3     1  lig        -0.0740
     21 N1          5.7016    5.6327   20.8123 N.4     1  lig        -0.8252
     22 O1          8.5535    6.6891   20.1261 O.co2   1  lig        -0.7573
     23 O2          7.2022    8.3950   19.9984 O.co2   1  lig        -0.7573
     24 O3         11.8712    8.1434   24.7714 O.3     1  lig        -0.4913
@<TRIPOS>BOND
     1     1    12    1
     2     2    13    1
     3     3    14    1
     4     4    15    1
     5     5    19    1
     6     6    19    1
     7     7    20    1
     8     8    21    1
     9     9    21    1
    10    10    21    1
    11    11    24    1
    12    12    14   ar
    13    12    16   ar
    14    13    15   ar
    15    13    16   ar
    16    14    17   ar
    17    15    17   ar
    18    16    19    1
    19    17    24    1
    20    18    20    1
    21    18    22    1
    22    18    23    1
    23    19    20    1
    24    20    21    1
@<TRIPOS>SUBSTRUCTURE
     1 lig         1 TEMP              0 ****  ****    0 ROOT


########## Name:		ligand
########## HA_RMSDs:		12.0438
########## HA_RMSDh:		11.9752
########## HA_RMSDm:		8.6901
########## Cluster Size:	1
##########    Grid Score:          -12.989628
##########      Grid_vdw:          -11.252860
##########       Grid_es:           -1.736767
##########    Int_energy:            5.033496

@<TRIPOS>MOLECULE
ligand
 24 24 1 0 0
SMALL
No Charge or Current Charge


@<TRIPOS>ATOM
      1 H1         15.8748   13.0381   26.7106 H       1  lig         0.1340
      2 H2         15.8038   15.8090   29.9559 H       1  lig         0.1340
      3 H3         15.8606   14.9159   25.1542 H       1  lig         0.1475
      4 H4         15.7388   17.7093   28.3894 H       1  lig         0.1475
      5 H5         16.1729   12.2539   28.8505 H       1  lig         0.0877
      6 H6         16.6137   13.2926   30.1687 H       1  lig         0.0877
      7 H7         13.9060   13.7232   30.1847 H       1  lig         0.0966
      8 H8         15.3381   12.9764   32.0226 H       1  lig         0.4431
      9 H9         13.9900   12.0105   31.9706 H       1  lig         0.4431
     10 H10        15.4331   11.4485   31.3576 H       1  lig         0.4431
     11 H11        16.4536   17.0934   25.0818 H       1  lig         0.4214
     12 C1         15.8386   14.0556   27.0912 C.ar    1  lig        -0.0999
     13 C2         15.8063   15.6187   28.8852 C.ar    1  lig        -0.0999
     14 C3         15.8360   15.1107   26.2208 C.ar    1  lig        -0.1787
     15 C4         15.7629   16.6909   28.0147 C.ar    1  lig        -0.1787
     16 C5         15.8172   14.3056   28.4291 C.ar    1  lig        -0.1394
     17 C6         15.7660   16.4083   26.6538 C.ar    1  lig         0.1292
     18 C7         13.7313   11.8287   29.2751 C.2     1  lig         0.9321
     19 C8         15.8438   13.1423   29.4022 C.3     1  lig        -0.0452
     20 C9         14.5184   12.8248   30.0955 C.3     1  lig        -0.0740
     21 N1         14.8268   12.3038   31.4267 N.4     1  lig        -0.8252
     22 O1         14.0346   11.7921   28.0847 O.co2   1  lig        -0.7573
     23 O2         12.8093   11.1069   29.7525 O.co2   1  lig        -0.7573
     24 O3         15.7841   17.3382   25.7843 O.3     1  lig        -0.4913
@<TRIPOS>BOND
     1     1    12    1
     2     2    13    1
     3     3    14    1
     4     4    15    1
     5     5    19    1
     6     6    19    1
     7     7    20    1
     8     8    21    1
     9     9    21    1
    10    10    21    1
    11    11    24    1
    12    12    14   ar
    13    12    16   ar
    14    13    15   ar
    15    13    16   ar
    16    14    17   ar
    17    15    17   ar
    18    16    19    1
    19    17    24    1
    20    18    20    1
    21    18    22    1
    22    18    23    1
    23    19    20    1
    24    20    21    1
@<TRIPOS>SUBSTRUCTURE
     1 lig         1 TEMP              0 ****  ****    0 ROOT


########## Name:		ligand
########## HA_RMSDs:		12.5103
########## HA_RMSDh:		12.4525
########## HA_RMSDm:		10.1411
########## Cluster Size:	1
##########    Grid Score:          -12.865630
##########      Grid_vdw:          -13.774616
##########       Grid_es:            0.908986
##########    Int_energy:            1.453637

@<TRIPOS>MOLECULE
ligand
 24 24 1 0 0
SMALL
No Charge or Current Charge


@<TRIPOS>ATOM
      1 H1         16.5176   17.3633   27.9824 H       1  lig         0.1340
      2 H2         13.9947   15.3239   30.7557 H       1  lig         0.1340
      3 H3         15.6320   19.4863   28.7933 H       1  lig         0.1475
      4 H4         13.0595   17.4622   31.5446 H       1  lig         0.1475
      5 H5         15.0231   14.1769   28.7528 H       1  lig         0.0877
      6 H6         16.2204   14.9758   27.7838 H       1  lig         0.0877
      7 H7         16.5968   14.0785   30.6847 H       1  lig         0.0966
      8 H8         17.8041   16.1388   30.1512 H       1  lig         0.4431
      9 H9         18.8949   14.8928   30.2540 H       1  lig         0.4431
     10 H10        18.4133   15.4480   28.7592 H       1  lig         0.4431
     11 H11        14.3686   20.4572   30.0331 H       1  lig         0.4214
     12 C1         15.7562   17.3707   28.7582 C.ar    1  lig        -0.0999
     13 C2         14.3466   16.2548   30.3172 C.ar    1  lig        -0.0999
     14 C3         15.2618   18.5599   29.2187 C.ar    1  lig        -0.1787
     15 C4         13.8112   17.4485   30.7617 C.ar    1  lig        -0.1787
     16 C5         15.2952   16.2111   29.3020 C.ar    1  lig        -0.1394
     17 C6         14.2846   18.6171   30.1767 C.ar    1  lig         0.1292
     18 C7         17.3963   12.9514   29.0917 C.2     1  lig         0.9321
     19 C8         15.8550   14.8883   28.8142 C.3     1  lig        -0.0452
     20 C9         16.9603   14.2759   29.6751 C.3     1  lig        -0.0740
     21 N1         18.0650   15.2327   29.7269 N.4     1  lig        -0.8252
     22 O1         16.8096   11.9727   29.5483 O.co2   1  lig        -0.7573
     23 O2         18.3118   12.8387   28.2269 O.co2   1  lig        -0.7573
     24 O3         13.8856   19.7617   30.5667 O.3     1  lig        -0.4913
@<TRIPOS>BOND
     1     1    12    1
     2     2    13    1
     3     3    14    1
     4     4    15    1
     5     5    19    1
     6     6    19    1
     7     7    20    1
     8     8    21    1
     9     9    21    1
    10    10    21    1
    11    11    24    1
    12    12    14   ar
    13    12    16   ar
    14    13    15   ar
    15    13    16   ar
    16    14    17   ar
    17    15    17   ar
    18    16    19    1
    19    17    24    1
    20    18    20    1
    21    18    22    1
    22    18    23    1
    23    19    20    1
    24    20    21    1
@<TRIPOS>SUBSTRUCTURE
     1 lig         1 TEMP              0 ****  ****    0 ROOT


########## Name:		ligand
########## HA_RMSDs:		12.8901
########## HA_RMSDh:		12.8372
########## HA_RMSDm:		10.8914
########## Cluster Size:	1
##########    Grid Score:          -12.765800
##########      Grid_vdw:          -14.090942
##########       Grid_es:            1.325143
##########    Int_energy:            2.491893

@<TRIPOS>MOLECULE
ligand
 24 24 1 0 0
SMALL
No Charge or Current Charge


@<TRIPOS>ATOM
      1 H1         14.0988   16.2491   27.6679 H       1  lig         0.1340
      2 H2         13.4517   12.7398   30.0092 H       1  lig         0.1340
      3 H3         14.1008   17.5720   29.7170 H       1  lig         0.1475
      4 H4         13.4028   14.0762   32.0782 H       1  lig         0.1475
      5 H5         14.3103   14.1547   26.6753 H       1  lig         0.0877
      6 H6         14.3608   12.6733   27.5773 H       1  lig         0.0877
      7 H7         12.3892   13.2791   25.7929 H       1  lig         0.0966
      8 H8         11.5800   15.1051   27.2062 H       1  lig         0.4431
      9 H9         10.4306   13.9092   27.1701 H       1  lig         0.4431
     10 H10        11.4211   14.0632   28.5004 H       1  lig         0.4431
     11 H11        12.8405   16.7158   32.4265 H       1  lig         0.4214
     12 C1         13.9390   15.7618   28.6264 C.ar    1  lig        -0.0999
     13 C2         13.5856   13.8175   29.9521 C.ar    1  lig        -0.0999
     14 C3         13.9451   16.5005   29.7775 C.ar    1  lig        -0.1787
     15 C4         13.5500   14.5591   31.1174 C.ar    1  lig        -0.1787
     16 C5         13.7525   14.4160   28.7085 C.ar    1  lig        -0.1394
     17 C6         13.7234   15.9335   31.0045 C.ar    1  lig         0.1292
     18 C7         12.0870   11.7599   27.2239 C.2     1  lig         0.9321
     19 C8         13.7678   13.5855   27.4392 C.3     1  lig        -0.0452
     20 C9         12.3979   13.1988   26.8809 C.3     1  lig        -0.0740
     21 N1         11.4108   14.1150   27.4510 N.4     1  lig        -0.8252
     22 O1         12.5075   10.9377   26.4130 O.co2   1  lig        -0.7573
     23 O2         11.4210   11.4147   28.2418 O.co2   1  lig        -0.7573
     24 O3         13.7601   16.6832   32.0331 O.3     1  lig        -0.4913
@<TRIPOS>BOND
     1     1    12    1
     2     2    13    1
     3     3    14    1
     4     4    15    1
     5     5    19    1
     6     6    19    1
     7     7    20    1
     8     8    21    1
     9     9    21    1
    10    10    21    1
    11    11    24    1
    12    12    14   ar
    13    12    16   ar
    14    13    15   ar
    15    13    16   ar
    16    14    17   ar
    17    15    17   ar
    18    16    19    1
    19    17    24    1
    20    18    20    1
    21    18    22    1
    22    18    23    1
    23    19    20    1
    24    20    21    1
@<TRIPOS>SUBSTRUCTURE
     1 lig         1 TEMP              0 ****  ****    0 ROOT


########## Name:		ligand
########## HA_RMSDs:		14.6370
########## HA_RMSDh:		14.5662
########## HA_RMSDm:		12.3847
########## Cluster Size:	1
##########    Grid Score:          -12.760380
##########      Grid_vdw:          -12.475314
##########       Grid_es:           -0.285065
##########    Int_energy:            1.695487

@<TRIPOS>MOLECULE
ligand
 24 24 1 0 0
SMALL
No Charge or Current Charge


@<TRIPOS>ATOM
      1 H1         27.7470    7.7178   12.8601 H       1  lig         0.1340
      2 H2         26.1601    7.6372   16.8212 H       1  lig         0.1340
      3 H3         29.9876    7.4709   13.7915 H       1  lig         0.1475
      4 H4         28.4243    7.4379   17.7713 H       1  lig         0.1475
      5 H5         24.7917    8.3313   14.9691 H       1  lig         0.0877
      6 H6         25.4111    8.5498   13.3631 H       1  lig         0.0877
      7 H7         25.3923    5.9961   13.0857 H       1  lig         0.0966
      8 H8         23.6262    7.4751   12.2609 H       1  lig         0.4431
      9 H9         22.9331    6.0704   12.8080 H       1  lig         0.4431
     10 H10        22.8727    7.4429   13.7499 H       1  lig         0.4431
     11 H11        30.5647    7.4998   17.2113 H       1  lig         0.4214
     12 C1         27.8819    7.6640   13.9374 C.ar    1  lig        -0.0999
     13 C2         27.0185    7.6093   16.1541 C.ar    1  lig        -0.0999
     14 C3         29.1368    7.5200   14.4622 C.ar    1  lig        -0.1787
     15 C4         28.2848    7.5040   16.6970 C.ar    1  lig        -0.1787
     16 C5         26.8165    7.7158   14.7829 C.ar    1  lig        -0.1394
     17 C6         29.3571    7.4729   15.8132 C.ar    1  lig         0.1292
     18 C7         24.5159    5.6600   14.9741 C.2     1  lig         0.9321
     19 C8         25.4190    7.8515   14.2088 C.3     1  lig        -0.0452
     20 C9         24.7494    6.5477   13.7732 C.3     1  lig        -0.0740
     21 N1         23.4951    6.8937   13.1057 N.4     1  lig        -0.8252
     22 O1         25.1944    4.6354   14.9933 O.co2   1  lig        -0.7573
     23 O2         23.6710    5.9193   15.8784 O.co2   1  lig        -0.7573
     24 O3         30.5519    7.3214   16.2266 O.3     1  lig        -0.4913
@<TRIPOS>BOND
     1     1    12    1
     2     2    13    1
     3     3    14    1
     4     4    15    1
     5     5    19    1
     6     6    19    1
     7     7    20    1
     8     8    21    1
     9     9    21    1
    10    10    21    1
    11    11    24    1
    12    12    14   ar
    13    12    16   ar
    14    13    15   ar
    15    13    16   ar
    16    14    17   ar
    17    15    17   ar
    18    16    19    1
    19    17    24    1
    20    18    20    1
    21    18    22    1
    22    18    23    1
    23    19    20    1
    24    20    21    1
@<TRIPOS>SUBSTRUCTURE
     1 lig         1 TEMP              0 ****  ****    0 ROOT


########## Name:		ligand
########## HA_RMSDs:		10.7460
########## HA_RMSDh:		10.7445
########## HA_RMSDm:		9.4453
########## Cluster Size:	1
##########    Grid Score:          -12.746801
##########      Grid_vdw:          -11.583078
##########       Grid_es:           -1.163723
##########    Int_energy:            1.761750

@<TRIPOS>MOLECULE
ligand
 24 24 1 0 0
SMALL
No Charge or Current Charge


@<TRIPOS>ATOM
      1 H1         17.6109   15.8834   28.3000 H       1  lig         0.1340
      2 H2         13.9940   13.6180   28.3383 H       1  lig         0.1340
      3 H3         16.2916   17.9252   28.4981 H       1  lig         0.1475
      4 H4         12.6531   15.6792   28.4881 H       1  lig         0.1475
      5 H5         17.7525   13.6153   28.3351 H       1  lig         0.0877
      6 H6         16.4617   12.6664   29.0014 H       1  lig         0.0877
      7 H7         15.5639   12.2094   26.7258 H       1  lig         0.0966
      8 H8         17.3351   10.8053   27.6630 H       1  lig         0.4431
      9 H9         17.5536   10.9149   26.0219 H       1  lig         0.4431
     10 H10        18.5022   11.8256   27.0444 H       1  lig         0.4431
     11 H11        12.8109   17.8541   28.5970 H       1  lig         0.4214
     12 C1         16.5260   15.8251   28.3339 C.ar    1  lig        -0.0999
     13 C2         14.4973   14.5816   28.3645 C.ar    1  lig        -0.0999
     14 C3         15.7839   16.9681   28.4504 C.ar    1  lig        -0.1787
     15 C4         13.7362   15.7323   28.4419 C.ar    1  lig        -0.1787
     16 C5         15.8844   14.6256   28.2839 C.ar    1  lig        -0.1394
     17 C6         14.4145   16.9450   28.4717 C.ar    1  lig         0.1292
     18 C7         16.8592   13.5185   25.6984 C.2     1  lig         0.9321
     19 C8         16.7001   13.3511   28.1785 C.3     1  lig        -0.0452
     20 C9         16.5777   12.5904   26.8578 C.3     1  lig        -0.0740
     21 N1         17.5226   11.4750   26.8980 N.4     1  lig        -0.8252
     22 O1         15.8766   13.7960   25.0142 O.co2   1  lig        -0.7573
     23 O2         18.0122   13.9571   25.4212 O.co2   1  lig        -0.7573
     24 O3         13.7926   18.0489   28.5986 O.3     1  lig        -0.4913
@<TRIPOS>BOND
     1     1    12    1
     2     2    13    1
     3     3    14    1
     4     4    15    1
     5     5    19    1
     6     6    19    1
     7     7    20    1
     8     8    21    1
     9     9    21    1
    10    10    21    1
    11    11    24    1
    12    12    14   ar
    13    12    16   ar
    14    13    15   ar
    15    13    16   ar
    16    14    17   ar
    17    15    17   ar
    18    16    19    1
    19    17    24    1
    20    18    20    1
    21    18    22    1
    22    18    23    1
    23    19    20    1
    24    20    21    1
@<TRIPOS>SUBSTRUCTURE
     1 lig         1 TEMP              0 ****  ****    0 ROOT


########## Name:		ligand
########## HA_RMSDs:		11.9566
########## HA_RMSDh:		11.9204
########## HA_RMSDm:		10.0438
########## Cluster Size:	1
##########    Grid Score:          -12.740076
##########      Grid_vdw:          -13.459205
##########       Grid_es:            0.719129
##########    Int_energy:            4.529863

@<TRIPOS>MOLECULE
ligand
 24 24 1 0 0
SMALL
No Charge or Current Charge


@<TRIPOS>ATOM
      1 H1         12.2147   10.3583   24.5278 H       1  lig         0.1340
      2 H2         11.0840    6.8050   22.4515 H       1  lig         0.1340
      3 H3          9.8942   11.1045   24.4403 H       1  lig         0.1475
      4 H4          8.7479    7.5753   22.3156 H       1  lig         0.1475
      5 H5         13.5061    7.9708   24.6003 H       1  lig         0.0877
      6 H6         13.3291    7.0535   23.1382 H       1  lig         0.0877
      7 H7         15.0305    8.3635   22.3594 H       1  lig         0.0966
      8 H8         15.3818    9.2539   24.6112 H       1  lig         0.4431
      9 H9         15.5777   10.4838   23.5148 H       1  lig         0.4431
     10 H10        14.1617   10.3700   24.3846 H       1  lig         0.4431
     11 H11         8.0208   10.8129   23.6964 H       1  lig         0.4214
     12 C1         11.4667    9.7424   24.0350 C.ar    1  lig        -0.0999
     13 C2         10.8125    7.7655   22.8832 C.ar    1  lig        -0.0999
     14 C3         10.1638   10.1558   23.9892 C.ar    1  lig        -0.1787
     15 C4          9.5011    8.1918   22.7960 C.ar    1  lig        -0.1787
     16 C5         11.7982    8.5465   23.4756 C.ar    1  lig        -0.1394
     17 C6          9.1925    9.4251   23.3577 C.ar    1  lig         0.1292
     18 C7         13.5971    9.8013   21.7893 C.2     1  lig         0.9321
     19 C8         13.2364    8.0689   23.5423 C.3     1  lig        -0.0452
     20 C9         14.2673    8.9651   22.8553 C.3     1  lig        -0.0740
     21 N1         14.8878    9.7985   23.8844 N.4     1  lig        -0.8252
     22 O1         13.1874    9.1646   20.8212 O.co2   1  lig        -0.7573
     23 O2         13.4876   11.0592   21.8571 O.co2   1  lig        -0.7573
     24 O3          7.9984    9.8669   23.3706 O.3     1  lig        -0.4913
@<TRIPOS>BOND
     1     1    12    1
     2     2    13    1
     3     3    14    1
     4     4    15    1
     5     5    19    1
     6     6    19    1
     7     7    20    1
     8     8    21    1
     9     9    21    1
    10    10    21    1
    11    11    24    1
    12    12    14   ar
    13    12    16   ar
    14    13    15   ar
    15    13    16   ar
    16    14    17   ar
    17    15    17   ar
    18    16    19    1
    19    17    24    1
    20    18    20    1
    21    18    22    1
    22    18    23    1
    23    19    20    1
    24    20    21    1
@<TRIPOS>SUBSTRUCTURE
     1 lig         1 TEMP              0 ****  ****    0 ROOT


########## Name:		ligand
########## HA_RMSDs:		16.1266
########## HA_RMSDh:		16.1123
########## HA_RMSDm:		14.0752
########## Cluster Size:	1
##########    Grid Score:          -12.704000
##########      Grid_vdw:          -13.502073
##########       Grid_es:            0.798074
##########    Int_energy:            5.339254

@<TRIPOS>MOLECULE
ligand
 24 24 1 0 0
SMALL
No Charge or Current Charge


@<TRIPOS>ATOM
      1 H1         25.0282    5.3226   14.3382 H       1  lig         0.1340
      2 H2         22.4003    2.5065   12.5000 H       1  lig         0.1340
      3 H3         23.7297    7.1305   13.3411 H       1  lig         0.1475
      4 H4         21.1143    4.3262   11.4493 H       1  lig         0.1475
      5 H5         24.8449    2.9713   15.1215 H       1  lig         0.0877
      6 H6         23.9821    1.7762   14.2061 H       1  lig         0.0877
      7 H7         26.4058    1.4830   13.9095 H       1  lig         0.0966
      8 H8         27.0085    3.8256   14.2777 H       1  lig         0.4431
      9 H9         27.6485    3.3317   12.8288 H       1  lig         0.4431
     10 H10        26.2685    4.2643   12.8474 H       1  lig         0.4431
     11 H11        21.4952    6.6469   10.9027 H       1  lig         0.4214
     12 C1         24.1774    5.0906   13.7026 C.ar    1  lig        -0.0999
     13 C2         22.6955    3.5385   12.6742 C.ar    1  lig        -0.0999
     14 C3         23.4442    6.1025   13.1466 C.ar    1  lig        -0.1787
     15 C4         21.9719    4.5518   12.0751 C.ar    1  lig        -0.1787
     16 C5         23.8093    3.8022   13.4630 C.ar    1  lig        -0.1394
     17 C6         22.3800    5.8577   12.3198 C.ar    1  lig         0.1292
     18 C7         25.5870    1.7791   11.9889 C.2     1  lig         0.9321
     19 C8         24.6023    2.6738   14.0946 C.3     1  lig        -0.0452
     20 C9         25.8968    2.2884   13.3779 C.3     1  lig        -0.0740
     21 N1         26.7535    3.4730   13.3399 N.4     1  lig        -0.8252
     22 O1         25.2200    2.6439   11.1963 O.co2   1  lig        -0.7573
     23 O2         25.6626    0.5604   11.6608 O.co2   1  lig        -0.7573
     24 O3         21.7356    6.8516   11.8524 O.3     1  lig        -0.4913
@<TRIPOS>BOND
     1     1    12    1
     2     2    13    1
     3     3    14    1
     4     4    15    1
     5     5    19    1
     6     6    19    1
     7     7    20    1
     8     8    21    1
     9     9    21    1
    10    10    21    1
    11    11    24    1
    12    12    14   ar
    13    12    16   ar
    14    13    15   ar
    15    13    16   ar
    16    14    17   ar
    17    15    17   ar
    18    16    19    1
    19    17    24    1
    20    18    20    1
    21    18    22    1
    22    18    23    1
    23    19    20    1
    24    20    21    1
@<TRIPOS>SUBSTRUCTURE
     1 lig         1 TEMP              0 ****  ****    0 ROOT


########## Name:		ligand
########## HA_RMSDs:		13.5618
########## HA_RMSDh:		13.4981
########## HA_RMSDm:		9.7291
########## Cluster Size:	1
##########    Grid Score:          -12.660669
##########      Grid_vdw:          -11.018211
##########       Grid_es:           -1.642458
##########    Int_energy:            2.234499

@<TRIPOS>MOLECULE
ligand
 24 24 1 0 0
SMALL
No Charge or Current Charge


@<TRIPOS>ATOM
      1 H1         14.4800   12.9340   29.2817 H       1  lig         0.1340
      2 H2         17.7595   15.6296   29.7220 H       1  lig         0.1340
      3 H3         14.7092   13.1078   26.8597 H       1  lig         0.1475
      4 H4         17.9645   15.8487   27.2768 H       1  lig         0.1475
      5 H5         14.9440   13.8366   31.3833 H       1  lig         0.0877
      6 H6         16.6073   13.3694   31.5432 H       1  lig         0.0877
      7 H7         17.0969   15.9828   31.5285 H       1  lig         0.0966
      8 H8         17.3753   14.4480   33.4135 H       1  lig         0.4431
      9 H9         16.7078   15.8612   33.9706 H       1  lig         0.4431
     10 H10        15.7413   14.5234   33.7454 H       1  lig         0.4431
     11 H11        15.8340   13.7637   25.2877 H       1  lig         0.4214
     12 C1         15.2430   13.5806   28.8557 C.ar    1  lig        -0.0999
     13 C2         17.0781   15.0791   29.0776 C.ar    1  lig        -0.0999
     14 C3         15.3773   13.6757   27.4979 C.ar    1  lig        -0.1787
     15 C4         17.1968   15.2138   27.7075 C.ar    1  lig        -0.1787
     16 C5         16.0901   14.2881   29.6524 C.ar    1  lig        -0.1394
     17 C6         16.3073   14.4962   26.9166 C.ar    1  lig         0.1292
     18 C7         15.0549   16.3746   31.8801 C.2     1  lig         0.9321
     19 C8         15.9639   14.1704   31.1595 C.3     1  lig        -0.0452
     20 C9         16.2462   15.4471   31.9522 C.3     1  lig        -0.0740
     21 N1         16.5448   15.0580   33.3299 N.4     1  lig        -0.8252
     22 O1         15.1544   17.2724   31.0466 O.co2   1  lig        -0.7573
     23 O2         14.0436   16.2694   32.6318 O.co2   1  lig        -0.7573
     24 O3         16.3835   14.5197   25.6458 O.3     1  lig        -0.4913
@<TRIPOS>BOND
     1     1    12    1
     2     2    13    1
     3     3    14    1
     4     4    15    1
     5     5    19    1
     6     6    19    1
     7     7    20    1
     8     8    21    1
     9     9    21    1
    10    10    21    1
    11    11    24    1
    12    12    14   ar
    13    12    16   ar
    14    13    15   ar
    15    13    16   ar
    16    14    17   ar
    17    15    17   ar
    18    16    19    1
    19    17    24    1
    20    18    20    1
    21    18    22    1
    22    18    23    1
    23    19    20    1
    24    20    21    1
@<TRIPOS>SUBSTRUCTURE
     1 lig         1 TEMP              0 ****  ****    0 ROOT


########## Name:		ligand
########## HA_RMSDs:		11.3477
########## HA_RMSDh:		11.3477
########## HA_RMSDm:		9.1044
########## Cluster Size:	1
##########    Grid Score:          -12.622589
##########      Grid_vdw:          -12.124151
##########       Grid_es:           -0.498438
##########    Int_energy:            2.825613

@<TRIPOS>MOLECULE
ligand
 24 24 1 0 0
SMALL
No Charge or Current Charge


@<TRIPOS>ATOM
      1 H1         18.0640   16.6137   30.0635 H       1  lig         0.1340
      2 H2         16.1624   15.9754   26.2962 H       1  lig         0.1340
      3 H3         16.2150   18.0671   30.7097 H       1  lig         0.1475
      4 H4         14.3166   17.4817   26.9232 H       1  lig         0.1475
      5 H5         18.1384   14.8862   26.7459 H       1  lig         0.0877
      6 H6         19.3019   15.8731   27.5722 H       1  lig         0.0877
      7 H7         18.3473   14.4006   29.7029 H       1  lig         0.0966
      8 H8         20.6652   14.7401   28.9968 H       1  lig         0.4431
      9 H9         20.4230   13.1218   29.2717 H       1  lig         0.4431
     10 H10        20.4492   13.6997   27.7097 H       1  lig         0.4431
     11 H11        13.3707   18.2357   29.0011 H       1  lig         0.4214
     12 C1         17.2529   16.8004   29.3642 C.ar    1  lig        -0.0999
     13 C2         16.1713   16.4528   27.2732 C.ar    1  lig        -0.0999
     14 C3         16.2121   17.6106   29.7260 C.ar    1  lig        -0.1787
     15 C4         15.1349   17.3012   27.6130 C.ar    1  lig        -0.1787
     16 C5         17.2400   16.2223   28.1319 C.ar    1  lig        -0.1394
     17 C6         15.1817   17.8942   28.8693 C.ar    1  lig         0.1292
     18 C7         17.9092   12.9172   28.2696 C.2     1  lig         0.9321
     19 C8         18.3783   15.3034   27.7309 C.3     1  lig        -0.0452
     20 C9         18.6730   14.1513   28.6920 C.3     1  lig        -0.0740
     21 N1         20.1173   13.9220   28.6815 N.4     1  lig        -0.8252
     22 O1         16.7644   13.1325   27.8777 O.co2   1  lig        -0.7573
     23 O2         18.3832   11.7470   28.3384 O.co2   1  lig        -0.7573
     24 O3         14.2397   18.6444   29.2830 O.3     1  lig        -0.4913
@<TRIPOS>BOND
     1     1    12    1
     2     2    13    1
     3     3    14    1
     4     4    15    1
     5     5    19    1
     6     6    19    1
     7     7    20    1
     8     8    21    1
     9     9    21    1
    10    10    21    1
    11    11    24    1
    12    12    14   ar
    13    12    16   ar
    14    13    15   ar
    15    13    16   ar
    16    14    17   ar
    17    15    17   ar
    18    16    19    1
    19    17    24    1
    20    18    20    1
    21    18    22    1
    22    18    23    1
    23    19    20    1
    24    20    21    1
@<TRIPOS>SUBSTRUCTURE
     1 lig         1 TEMP              0 ****  ****    0 ROOT


########## Name:		ligand
########## HA_RMSDs:		14.5431
########## HA_RMSDh:		14.5363
########## HA_RMSDm:		13.2133
########## Cluster Size:	1
##########    Grid Score:          -12.346387
##########      Grid_vdw:          -11.530998
##########       Grid_es:           -0.815389
##########    Int_energy:            9.242937

@<TRIPOS>MOLECULE
ligand
 24 24 1 0 0
SMALL
No Charge or Current Charge


@<TRIPOS>ATOM
      1 H1         10.2133    6.8288   24.7273 H       1  lig         0.1340
      2 H2          8.4605    9.3534   21.7660 H       1  lig         0.1340
      3 H3          9.1347    8.1689   26.4563 H       1  lig         0.1475
      4 H4          7.4088   10.7412   23.5087 H       1  lig         0.1475
      5 H5         10.5279    7.8656   21.3327 H       1  lig         0.0877
      6 H6         10.9224    6.6125   22.4661 H       1  lig         0.0877
      7 H7          9.5515    5.9854   20.3278 H       1  lig         0.0966
      8 H8          7.8823    7.7468   20.6410 H       1  lig         0.4431
      9 H9          7.1249    6.2730   20.7268 H       1  lig         0.4431
     10 H10         7.4591    7.1128   22.1259 H       1  lig         0.4431
     11 H11         6.9254   10.6979   25.6871 H       1  lig         0.4214
     12 C1          9.6070    7.6865   24.4472 C.ar    1  lig        -0.0999
     13 C2          8.6135    9.1024   22.8130 C.ar    1  lig        -0.0999
     14 C3          8.9966    8.4365   25.4144 C.ar    1  lig        -0.1787
     15 C4          8.0249    9.8908   23.7832 C.ar    1  lig        -0.1787
     16 C5          9.4229    8.0208   23.1406 C.ar    1  lig        -0.1394
     17 C6          8.2444    9.5399   25.1100 C.ar    1  lig         0.1292
     18 C7          9.0493    4.9115   22.0718 C.2     1  lig         0.9321
     19 C8         10.0767    7.1806   22.0601 C.3     1  lig        -0.0452
     20 C9          9.1517    6.2167   21.3162 C.3     1  lig        -0.0740
     21 N1          7.8484    6.8661   21.1817 N.4     1  lig        -0.8252
     22 O1          9.5428    4.9312   23.1973 O.co2   1  lig        -0.7573
     23 O2          8.5302    3.8652   21.5876 O.co2   1  lig        -0.7573
     24 O3          7.6938   10.1789   26.0639 O.3     1  lig        -0.4913
@<TRIPOS>BOND
     1     1    12    1
     2     2    13    1
     3     3    14    1
     4     4    15    1
     5     5    19    1
     6     6    19    1
     7     7    20    1
     8     8    21    1
     9     9    21    1
    10    10    21    1
    11    11    24    1
    12    12    14   ar
    13    12    16   ar
    14    13    15   ar
    15    13    16   ar
    16    14    17   ar
    17    15    17   ar
    18    16    19    1
    19    17    24    1
    20    18    20    1
    21    18    22    1
    22    18    23    1
    23    19    20    1
    24    20    21    1
@<TRIPOS>SUBSTRUCTURE
     1 lig         1 TEMP              0 ****  ****    0 ROOT


########## Name:		ligand
########## HA_RMSDs:		11.5076
########## HA_RMSDh:		11.4082
########## HA_RMSDm:		8.3659
########## Cluster Size:	1
##########    Grid Score:          -12.290515
##########      Grid_vdw:          -11.984542
##########       Grid_es:           -0.305973
##########    Int_energy:            5.579303

@<TRIPOS>MOLECULE
ligand
 24 24 1 0 0
SMALL
No Charge or Current Charge


@<TRIPOS>ATOM
      1 H1         16.7092   13.9741   27.6516 H       1  lig         0.1340
      2 H2         17.1425   17.7248   29.6415 H       1  lig         0.1340
      3 H3         16.0915   15.1666   25.6156 H       1  lig         0.1475
      4 H4         16.4710   18.9337   27.6027 H       1  lig         0.1475
      5 H5         16.9986   15.6318   30.8980 H       1  lig         0.0877
      6 H6         16.8033   14.0880   30.1305 H       1  lig         0.0877
      7 H7         19.0600   14.4286   31.2218 H       1  lig         0.0966
      8 H8         19.2973   16.7805   30.5901 H       1  lig         0.4431
      9 H9         20.5861   15.9319   29.9803 H       1  lig         0.4431
     10 H10        19.3321   16.3662   28.9736 H       1  lig         0.4431
     11 H11        15.8471   16.9399   24.6746 H       1  lig         0.4214
     12 C1         16.6547   15.0598   27.6562 C.ar    1  lig        -0.0999
     13 C2         16.8974   17.1624   28.7436 C.ar    1  lig        -0.0999
     14 C3         16.3139   15.7313   26.5144 C.ar    1  lig        -0.1787
     15 C4         16.5154   17.8493   27.6071 C.ar    1  lig        -0.1787
     16 C5         16.9420   15.7735   28.7790 C.ar    1  lig        -0.1394
     17 C6         16.2084   17.0965   26.4798 C.ar    1  lig         0.1292
     18 C7         19.2727   13.6666   29.2670 C.2     1  lig         0.9321
     19 C8         17.3439   15.0382   30.0435 C.3     1  lig        -0.0452
     20 C9         18.8397   14.7672   30.2083 C.3     1  lig        -0.0740
     21 N1         19.5501   16.0171   29.9403 N.4     1  lig        -0.8252
     22 O1         18.4449   12.7718   29.1100 O.co2   1  lig        -0.7573
     23 O2         20.4043   13.6367   28.7038 O.co2   1  lig        -0.7573
     24 O3         15.9019   17.6520   25.3757 O.3     1  lig        -0.4913
@<TRIPOS>BOND
     1     1    12    1
     2     2    13    1
     3     3    14    1
     4     4    15    1
     5     5    19    1
     6     6    19    1
     7     7    20    1
     8     8    21    1
     9     9    21    1
    10    10    21    1
    11    11    24    1
    12    12    14   ar
    13    12    16   ar
    14    13    15   ar
    15    13    16   ar
    16    14    17   ar
    17    15    17   ar
    18    16    19    1
    19    17    24    1
    20    18    20    1
    21    18    22    1
    22    18    23    1
    23    19    20    1
    24    20    21    1
@<TRIPOS>SUBSTRUCTURE
     1 lig         1 TEMP              0 ****  ****    0 ROOT


########## Name:		ligand
########## HA_RMSDs:		12.9433
########## HA_RMSDh:		12.9077
########## HA_RMSDm:		9.1964
########## Cluster Size:	1
##########    Grid Score:          -11.946579
##########      Grid_vdw:           -8.412165
##########       Grid_es:           -3.534415
##########    Int_energy:            3.150313

@<TRIPOS>MOLECULE
ligand
 24 24 1 0 0
SMALL
No Charge or Current Charge


@<TRIPOS>ATOM
      1 H1         16.9404   13.9088   30.5057 H       1  lig         0.1340
      2 H2         18.9469   16.5535   27.8233 H       1  lig         0.1340
      3 H3         15.2057   13.5769   28.8235 H       1  lig         0.1475
      4 H4         17.1727   16.2618   26.1391 H       1  lig         0.1475
      5 H5         19.3340   14.4910   30.7726 H       1  lig         0.0877
      6 H6         20.0757   15.7486   29.8351 H       1  lig         0.0877
      7 H7         19.7438   16.8396   31.8762 H       1  lig         0.0966
      8 H8         18.4911   14.9851   32.8654 H       1  lig         0.4431
      9 H9         17.7053   16.4046   33.2124 H       1  lig         0.4431
     10 H10        17.1287   15.4155   32.0026 H       1  lig         0.4431
     11 H11        15.5478   14.4767   25.6844 H       1  lig         0.4214
     12 C1         17.0000   14.4348   29.5562 C.ar    1  lig        -0.0999
     13 C2         18.1055   15.9002   28.0418 C.ar    1  lig        -0.0999
     14 C3         16.0315   14.2464   28.6090 C.ar    1  lig        -0.1787
     15 C4         17.1121   15.7483   27.0934 C.ar    1  lig        -0.1787
     16 C5         18.0393   15.2689   29.2785 C.ar    1  lig        -0.1394
     17 C6         16.0520   14.9066   27.4091 C.ar    1  lig         0.1292
     18 C7         18.1029   17.6715   30.8455 C.2     1  lig         0.9321
     19 C8         19.1304   15.4657   30.3138 C.3     1  lig        -0.0452
     20 C9         18.8220   16.4734   31.4217 C.3     1  lig        -0.0740
     21 N1         18.0119   15.7912   32.4302 N.4     1  lig        -0.8252
     22 O1         18.7839   18.3644   30.0927 O.co2   1  lig        -0.7573
     23 O2         16.9075   17.9697   31.1300 O.co2   1  lig        -0.7573
     24 O3         15.1240   14.6673   26.5708 O.3     1  lig        -0.4913
@<TRIPOS>BOND
     1     1    12    1
     2     2    13    1
     3     3    14    1
     4     4    15    1
     5     5    19    1
     6     6    19    1
     7     7    20    1
     8     8    21    1
     9     9    21    1
    10    10    21    1
    11    11    24    1
    12    12    14   ar
    13    12    16   ar
    14    13    15   ar
    15    13    16   ar
    16    14    17   ar
    17    15    17   ar
    18    16    19    1
    19    17    24    1
    20    18    20    1
    21    18    22    1
    22    18    23    1
    23    19    20    1
    24    20    21    1
@<TRIPOS>SUBSTRUCTURE
     1 lig         1 TEMP              0 ****  ****    0 ROOT


########## Name:		ligand
########## HA_RMSDs:		15.4511
########## HA_RMSDh:		15.3974
########## HA_RMSDm:		13.4767
########## Cluster Size:	1
##########    Grid Score:          -11.854002
##########      Grid_vdw:           -9.642451
##########       Grid_es:           -2.211551
##########    Int_energy:            8.329572

@<TRIPOS>MOLECULE
ligand
 24 24 1 0 0
SMALL
No Charge or Current Charge


@<TRIPOS>ATOM
      1 H1         26.0655    4.4511   12.5183 H       1  lig         0.1340
      2 H2         23.0365    4.1912   15.5138 H       1  lig         0.1340
      3 H3         24.3438    4.2092   10.8077 H       1  lig         0.1475
      4 H4         21.2984    3.8963   13.7929 H       1  lig         0.1475
      5 H5         25.5658    3.7021   15.9450 H       1  lig         0.0877
      6 H6         26.7225    4.2718   14.7839 H       1  lig         0.0877
      7 H7         26.1212    5.7383   16.9131 H       1  lig         0.0966
      8 H8         23.7260    5.7672   16.4141 H       1  lig         0.4431
      9 H9         24.3098    7.3171   16.3159 H       1  lig         0.4431
     10 H10        24.0222    6.4527   14.9214 H       1  lig         0.4431
     11 H11        21.2243    4.6458   11.3346 H       1  lig         0.4214
     12 C1         25.0264    4.3241   12.8111 C.ar    1  lig        -0.0999
     13 C2         23.3203    4.1842   14.4640 C.ar    1  lig        -0.0999
     14 C3         24.0582    4.1937   11.8538 C.ar    1  lig        -0.1787
     15 C4         22.3390    4.0116   13.5066 C.ar    1  lig        -0.1787
     16 C5         24.6616    4.3134   14.1224 C.ar    1  lig        -0.1394
     17 C6         22.7401    4.0066   12.1758 C.ar    1  lig         0.1292
     18 C7         26.7083    6.7697   15.1700 C.2     1  lig         0.9321
     19 C8         25.7256    4.4811   15.1904 C.3     1  lig        -0.0452
     20 C9         25.7577    5.8406   15.8895 C.3     1  lig        -0.0740
     21 N1         24.3934    6.3670   15.9007 N.4     1  lig        -0.8252
     22 O1         26.8537    6.5280   13.9737 O.co2   1  lig        -0.7573
     23 O2         27.3366    7.7048   15.7442 O.co2   1  lig        -0.7573
     24 O3         21.8938    3.9093   11.2294 O.3     1  lig        -0.4913
@<TRIPOS>BOND
     1     1    12    1
     2     2    13    1
     3     3    14    1
     4     4    15    1
     5     5    19    1
     6     6    19    1
     7     7    20    1
     8     8    21    1
     9     9    21    1
    10    10    21    1
    11    11    24    1
    12    12    14   ar
    13    12    16   ar
    14    13    15   ar
    15    13    16   ar
    16    14    17   ar
    17    15    17   ar
    18    16    19    1
    19    17    24    1
    20    18    20    1
    21    18    22    1
    22    18    23    1
    23    19    20    1
    24    20    21    1
@<TRIPOS>SUBSTRUCTURE
     1 lig         1 TEMP              0 ****  ****    0 ROOT


########## Name:		ligand
########## HA_RMSDs:		14.5730
########## HA_RMSDh:		14.5142
########## HA_RMSDm:		12.8878
########## Cluster Size:	1
##########    Grid Score:          -11.746799
##########      Grid_vdw:          -11.428595
##########       Grid_es:           -0.318204
##########    Int_energy:            8.117139

@<TRIPOS>MOLECULE
ligand
 24 24 1 0 0
SMALL
No Charge or Current Charge


@<TRIPOS>ATOM
      1 H1         25.0261    6.6516   12.8064 H       1  lig         0.1340
      2 H2         27.4889    5.7066   16.1616 H       1  lig         0.1340
      3 H3         24.9816    8.9773   13.5400 H       1  lig         0.1475
      4 H4         27.4069    8.0440   16.9357 H       1  lig         0.1475
      5 H5         26.4295    4.5872   12.9024 H       1  lig         0.0877
      6 H6         27.1759    4.0788   14.3839 H       1  lig         0.0877
      7 H7         25.0984    2.7805   13.8076 H       1  lig         0.0966
      8 H8         23.8645    4.6691   12.8603 H       1  lig         0.4431
      9 H9         22.9735    4.0174   14.0989 H       1  lig         0.4431
     10 H10        23.8313    5.4232   14.3490 H       1  lig         0.4431
     11 H11        26.8758   10.0877   16.1869 H       1  lig         0.4214
     12 C1         25.5464    6.9419   13.7157 C.ar    1  lig        -0.0999
     13 C2         26.9249    6.4392   15.5891 C.ar    1  lig        -0.0999
     14 C3         25.5276    8.2464   14.1264 C.ar    1  lig        -0.1787
     15 C4         26.8794    7.7462   16.0351 C.ar    1  lig        -0.1787
     16 C5         26.2409    6.0302   14.4501 C.ar    1  lig        -0.1394
     17 C6         26.1474    8.6534   15.2781 C.ar    1  lig         0.1292
     18 C7         25.0089    3.4548   15.8036 C.2     1  lig         0.9321
     19 C8         26.2870    4.5858   13.9893 C.3     1  lig        -0.0452
     20 C9         25.0552    3.7424   14.3205 C.3     1  lig        -0.0740
     21 N1         23.8759    4.4852   13.8776 N.4     1  lig        -0.8252
     22 O1         26.0493    3.7075   16.4072 O.co2   1  lig        -0.7573
     23 O2         24.0004    2.9632   16.3867 O.co2   1  lig        -0.7573
     24 O3         26.0999    9.8877   15.5872 O.3     1  lig        -0.4913
@<TRIPOS>BOND
     1     1    12    1
     2     2    13    1
     3     3    14    1
     4     4    15    1
     5     5    19    1
     6     6    19    1
     7     7    20    1
     8     8    21    1
     9     9    21    1
    10    10    21    1
    11    11    24    1
    12    12    14   ar
    13    12    16   ar
    14    13    15   ar
    15    13    16   ar
    16    14    17   ar
    17    15    17   ar
    18    16    19    1
    19    17    24    1
    20    18    20    1
    21    18    22    1
    22    18    23    1
    23    19    20    1
    24    20    21    1
@<TRIPOS>SUBSTRUCTURE
     1 lig         1 TEMP              0 ****  ****    0 ROOT


########## Name:		ligand
########## HA_RMSDs:		15.2533
########## HA_RMSDh:		15.2179
########## HA_RMSDm:		12.9919
########## Cluster Size:	1
##########    Grid Score:          -11.741467
##########      Grid_vdw:          -13.288938
##########       Grid_es:            1.547471
##########    Int_energy:            5.170702

@<TRIPOS>MOLECULE
ligand
 24 24 1 0 0
SMALL
No Charge or Current Charge


@<TRIPOS>ATOM
      1 H1         23.5474    2.0223   15.8264 H       1  lig         0.1340
      2 H2         24.1118    6.1971   15.1427 H       1  lig         0.1340
      3 H3         23.7637    2.4223   18.2227 H       1  lig         0.1475
      4 H4         24.3810    6.6009   17.5580 H       1  lig         0.1475
      5 H5         23.8527    4.7971   13.3342 H       1  lig         0.0877
      6 H6         24.4856    3.1874   13.4711 H       1  lig         0.0877
      7 H7         21.5800    3.4365   14.1598 H       1  lig         0.0966
      8 H8         22.8046    1.3228   14.0196 H       1  lig         0.4431
      9 H9         21.6633    1.3587   12.8158 H       1  lig         0.4431
     10 H10        23.2594    1.6644   12.4505 H       1  lig         0.4431
     11 H11        23.2809    4.4962   19.6886 H       1  lig         0.4214
     12 C1         23.7361    3.0285   16.1919 C.ar    1  lig        -0.0999
     13 C2         24.0454    5.3607   15.8345 C.ar    1  lig        -0.0999
     14 C3         23.8523    3.2565   17.5354 C.ar    1  lig        -0.1787
     15 C4         24.2044    5.5964   17.1868 C.ar    1  lig        -0.1787
     16 C5         23.8387    4.0804   15.3341 C.ar    1  lig        -0.1394
     17 C6         24.1147    4.5027   18.0398 C.ar    1  lig         0.1292
     18 C7         21.8728    3.9797   12.1433 C.2     1  lig         0.9321
     19 C8         23.6875    3.8407   13.8439 C.3     1  lig        -0.0452
     20 C9         22.3406    3.2730   13.3949 C.3     1  lig        -0.0740
     21 N1         22.5152    1.8383   13.1714 N.4     1  lig        -0.8252
     22 O1         22.7763    4.4143   11.4324 O.co2   1  lig        -0.7573
     23 O2         20.6538    4.1476   11.8524 O.co2   1  lig        -0.7573
     24 O3         24.1933    4.6400   19.3032 O.3     1  lig        -0.4913
@<TRIPOS>BOND
     1     1    12    1
     2     2    13    1
     3     3    14    1
     4     4    15    1
     5     5    19    1
     6     6    19    1
     7     7    20    1
     8     8    21    1
     9     9    21    1
    10    10    21    1
    11    11    24    1
    12    12    14   ar
    13    12    16   ar
    14    13    15   ar
    15    13    16   ar
    16    14    17   ar
    17    15    17   ar
    18    16    19    1
    19    17    24    1
    20    18    20    1
    21    18    22    1
    22    18    23    1
    23    19    20    1
    24    20    21    1
@<TRIPOS>SUBSTRUCTURE
     1 lig         1 TEMP              0 ****  ****    0 ROOT


########## Name:		ligand
########## HA_RMSDs:		10.5618
########## HA_RMSDh:		10.5348
########## HA_RMSDm:		8.7078
########## Cluster Size:	1
##########    Grid Score:          -11.678113
##########      Grid_vdw:          -13.685331
##########       Grid_es:            2.007218
##########    Int_energy:            3.109250

@<TRIPOS>MOLECULE
ligand
 24 24 1 0 0
SMALL
No Charge or Current Charge


@<TRIPOS>ATOM
      1 H1         14.2482    9.9556   25.8250 H       1  lig         0.1340
      2 H2         14.3773   11.7059   21.9346 H       1  lig         0.1340
      3 H3         16.6868    9.9175   25.8493 H       1  lig         0.1475
      4 H4         16.8395   11.6244   21.9318 H       1  lig         0.1475
      5 H5         12.3074   11.0535   24.8800 H       1  lig         0.0877
      6 H6         12.2838   11.7116   23.2748 H       1  lig         0.0877
      7 H7         11.4257    9.0864   24.1624 H       1  lig         0.0966
      8 H8         13.6825    8.4167   23.4952 H       1  lig         0.4431
      9 H9         12.6012    7.8317   22.3809 H       1  lig         0.4431
     10 H10        13.5012    9.1876   22.0260 H       1  lig         0.4431
     11 H11        18.5461   11.4910   23.5094 H       1  lig         0.4214
     12 C1         14.8033   10.3182   24.9636 C.ar    1  lig        -0.0999
     13 C2         14.8991   11.3003   22.7982 C.ar    1  lig        -0.0999
     14 C3         16.1709   10.3030   24.9768 C.ar    1  lig        -0.1787
     15 C4         16.2800   11.2527   22.7843 C.ar    1  lig        -0.1787
     16 C5         14.1607   10.8117   23.8699 C.ar    1  lig        -0.1394
     17 C6         16.9114   10.7262   23.9050 C.ar    1  lig         0.1292
     18 C7         10.9110    9.9539   22.3105 C.2     1  lig         0.9321
     19 C8         12.6444   10.8543   23.8560 C.3     1  lig        -0.0452
     20 C9         11.9482    9.5912   23.3485 C.3     1  lig        -0.0740
     21 N1         12.9757    8.7076   22.7989 N.4     1  lig        -0.8252
     22 O1         11.3588   10.5161   21.3135 O.co2   1  lig        -0.7573
     23 O2          9.6743    9.7335   22.4548 O.co2   1  lig        -0.7573
     24 O3         18.1811   10.6972   23.9974 O.3     1  lig        -0.4913
@<TRIPOS>BOND
     1     1    12    1
     2     2    13    1
     3     3    14    1
     4     4    15    1
     5     5    19    1
     6     6    19    1
     7     7    20    1
     8     8    21    1
     9     9    21    1
    10    10    21    1
    11    11    24    1
    12    12    14   ar
    13    12    16   ar
    14    13    15   ar
    15    13    16   ar
    16    14    17   ar
    17    15    17   ar
    18    16    19    1
    19    17    24    1
    20    18    20    1
    21    18    22    1
    22    18    23    1
    23    19    20    1
    24    20    21    1
@<TRIPOS>SUBSTRUCTURE
     1 lig         1 TEMP              0 ****  ****    0 ROOT


########## Name:		ligand
########## HA_RMSDs:		13.0402
########## HA_RMSDh:		12.9844
########## HA_RMSDm:		10.8921
########## Cluster Size:	1
##########    Grid Score:          -11.622323
##########      Grid_vdw:           -9.646832
##########       Grid_es:           -1.975490
##########    Int_energy:            4.068865

@<TRIPOS>MOLECULE
ligand
 24 24 1 0 0
SMALL
No Charge or Current Charge


@<TRIPOS>ATOM
      1 H1         14.0096   12.0024   26.2972 H       1  lig         0.1340
      2 H2         10.7925    9.2485   26.8282 H       1  lig         0.1340
      3 H3         14.3682   11.0965   24.0612 H       1  lig         0.1475
      4 H4         11.1814    8.2950   24.5902 H       1  lig         0.1475
      5 H5         11.9521   10.3993   28.7710 H       1  lig         0.0877
      6 H6         13.0688   11.6974   28.4909 H       1  lig         0.0877
      7 H7         10.9594   12.6563   29.2198 H       1  lig         0.0966
      8 H8          9.5617   10.7650   28.5443 H       1  lig         0.4431
      9 H9          8.9244   12.1555   27.9014 H       1  lig         0.4431
     10 H10         9.8094   11.1281   26.9341 H       1  lig         0.4431
     11 H11        12.9835   10.0119   22.3941 H       1  lig         0.4214
     12 C1         13.3874   11.1866   25.9380 C.ar    1  lig        -0.0999
     13 C2         11.5929    9.6476   26.2095 C.ar    1  lig        -0.0999
     14 C3         13.5828   10.6803   24.6826 C.ar    1  lig        -0.1787
     15 C4         11.8073    9.1017   24.9584 C.ar    1  lig        -0.1787
     16 C5         12.3942   10.6671   26.7104 C.ar    1  lig        -0.1394
     17 C6         12.8401    9.6366   24.1975 C.ar    1  lig         0.1292
     18 C7         11.2486   13.4069   27.2705 C.2     1  lig         0.9321
     19 C8         12.1548   11.2383   28.0951 C.3     1  lig        -0.0452
     20 C9         11.0113   12.2468   28.2099 C.3     1  lig        -0.0740
     21 N1          9.7668   11.5451   27.8976 N.4     1  lig        -0.8252
     22 O1         10.8491   13.2262   26.1223 O.co2   1  lig        -0.7573
     23 O2         11.8381   14.4716   27.6134 O.co2   1  lig        -0.7573
     24 O3         13.0693    9.2299   23.0128 O.3     1  lig        -0.4913
@<TRIPOS>BOND
     1     1    12    1
     2     2    13    1
     3     3    14    1
     4     4    15    1
     5     5    19    1
     6     6    19    1
     7     7    20    1
     8     8    21    1
     9     9    21    1
    10    10    21    1
    11    11    24    1
    12    12    14   ar
    13    12    16   ar
    14    13    15   ar
    15    13    16   ar
    16    14    17   ar
    17    15    17   ar
    18    16    19    1
    19    17    24    1
    20    18    20    1
    21    18    22    1
    22    18    23    1
    23    19    20    1
    24    20    21    1
@<TRIPOS>SUBSTRUCTURE
     1 lig         1 TEMP              0 ****  ****    0 ROOT


########## Name:		ligand
########## HA_RMSDs:		14.8384
########## HA_RMSDh:		14.7631
########## HA_RMSDm:		13.4439
########## Cluster Size:	1
##########    Grid Score:          -11.507776
##########      Grid_vdw:          -13.111288
##########       Grid_es:            1.603512
##########    Int_energy:            1.998431

@<TRIPOS>MOLECULE
ligand
 24 24 1 0 0
SMALL
No Charge or Current Charge


@<TRIPOS>ATOM
      1 H1         16.4044   15.5434   32.5561 H       1  lig         0.1340
      2 H2         13.1726   13.4457   30.7203 H       1  lig         0.1340
      3 H3         17.5680   13.4202   32.8500 H       1  lig         0.1475
      4 H4         14.3203   11.2923   31.0590 H       1  lig         0.1475
      5 H5         13.0368   15.7310   30.9337 H       1  lig         0.0877
      6 H6         13.6940   16.3799   32.4025 H       1  lig         0.0877
      7 H7         15.8169   16.9252   30.8155 H       1  lig         0.0966
      8 H8         14.4262   18.5072   32.0605 H       1  lig         0.4431
      9 H9         14.6825   19.1080   30.5353 H       1  lig         0.4431
     10 H10        13.2248   18.3932   30.9075 H       1  lig         0.4431
     11 H11        16.2127   10.4217   31.7254 H       1  lig         0.4214
     12 C1         15.9342   14.6193   32.2296 C.ar    1  lig        -0.0999
     13 C2         14.1472   13.4301   31.2024 C.ar    1  lig        -0.0999
     14 C3         16.5868   13.4279   32.3882 C.ar    1  lig        -0.1787
     15 C4         14.7799   12.2167   31.3939 C.ar    1  lig        -0.1787
     16 C5         14.7069   14.6246   31.6409 C.ar    1  lig        -0.1394
     17 C6         16.0232   12.2366   32.0149 C.ar    1  lig         0.1292
     18 C7         14.5257   16.7767   29.1548 C.2     1  lig         0.9321
     19 C8         13.9858   15.9439   31.4394 C.3     1  lig        -0.0452
     20 C9         14.7437   16.9997   30.6338 C.3     1  lig        -0.0740
     21 N1         14.2615   18.3135   31.0584 N.4     1  lig        -0.8252
     22 O1         14.9960   15.7276   28.7202 O.co2   1  lig        -0.7573
     23 O2         13.9377   17.6072   28.4043 O.co2   1  lig        -0.7573
     24 O3         16.6985   11.1697   32.1793 O.3     1  lig        -0.4913
@<TRIPOS>BOND
     1     1    12    1
     2     2    13    1
     3     3    14    1
     4     4    15    1
     5     5    19    1
     6     6    19    1
     7     7    20    1
     8     8    21    1
     9     9    21    1
    10    10    21    1
    11    11    24    1
    12    12    14   ar
    13    12    16   ar
    14    13    15   ar
    15    13    16   ar
    16    14    17   ar
    17    15    17   ar
    18    16    19    1
    19    17    24    1
    20    18    20    1
    21    18    22    1
    22    18    23    1
    23    19    20    1
    24    20    21    1
@<TRIPOS>SUBSTRUCTURE
     1 lig         1 TEMP              0 ****  ****    0 ROOT


########## Name:		ligand
########## HA_RMSDs:		11.5990
########## HA_RMSDh:		11.5062
########## HA_RMSDm:		9.6942
########## Cluster Size:	1
##########    Grid Score:          -11.376069
##########      Grid_vdw:           -9.424457
##########       Grid_es:           -1.951612
##########    Int_energy:            2.503469

@<TRIPOS>MOLECULE
ligand
 24 24 1 0 0
SMALL
No Charge or Current Charge


@<TRIPOS>ATOM
      1 H1         13.3710   15.3127   28.6341 H       1  lig         0.1340
      2 H2         17.2518   13.6795   27.9360 H       1  lig         0.1340
      3 H3         14.0694   15.9125   30.8927 H       1  lig         0.1475
      4 H4         17.9478   14.2375   30.2323 H       1  lig         0.1475
      5 H5         13.7520   13.9219   26.7475 H       1  lig         0.0877
      6 H6         14.9893   14.9255   26.0603 H       1  lig         0.0877
      7 H7         15.8417   12.1658   26.9283 H       1  lig         0.0966
      8 H8         17.3658   13.7930   25.9202 H       1  lig         0.4431
      9 H9         17.1595   12.5301   24.8640 H       1  lig         0.4431
     10 H10        16.3508   13.9633   24.6061 H       1  lig         0.4431
     11 H11        17.2061   15.0597   32.1284 H       1  lig         0.4214
     12 C1         14.3738   15.0659   28.9736 C.ar    1  lig        -0.0999
     13 C2         16.5462   14.1679   28.6039 C.ar    1  lig        -0.0999
     14 C3         14.7698   15.4060   30.2377 C.ar    1  lig        -0.1787
     15 C4         16.9439   14.4709   29.8921 C.ar    1  lig        -0.1787
     16 C5         15.2597   14.4387   28.1523 C.ar    1  lig        -0.1394
     17 C6         16.0143   15.0934   30.7169 C.ar    1  lig         0.1292
     18 C7         14.5172   12.0797   25.2897 C.2     1  lig         0.9321
     19 C8         14.8370   14.0789   26.7406 C.3     1  lig        -0.0452
     20 C9         15.5067   12.8422   26.1406 C.3     1  lig        -0.0740
     21 N1         16.6558   13.2950   25.3574 N.4     1  lig        -0.8252
     22 O1         13.8403   11.2578   25.9035 O.co2   1  lig        -0.7573
     23 O2         14.4046   12.2389   24.0404 O.co2   1  lig        -0.7573
     24 O3         16.3166   15.4571   31.8991 O.3     1  lig        -0.4913
@<TRIPOS>BOND
     1     1    12    1
     2     2    13    1
     3     3    14    1
     4     4    15    1
     5     5    19    1
     6     6    19    1
     7     7    20    1
     8     8    21    1
     9     9    21    1
    10    10    21    1
    11    11    24    1
    12    12    14   ar
    13    12    16   ar
    14    13    15   ar
    15    13    16   ar
    16    14    17   ar
    17    15    17   ar
    18    16    19    1
    19    17    24    1
    20    18    20    1
    21    18    22    1
    22    18    23    1
    23    19    20    1
    24    20    21    1
@<TRIPOS>SUBSTRUCTURE
     1 lig         1 TEMP              0 ****  ****    0 ROOT


########## Name:		ligand
########## HA_RMSDs:		15.1516
########## HA_RMSDh:		15.1310
########## HA_RMSDm:		12.9161
########## Cluster Size:	1
##########    Grid Score:          -11.164927
##########      Grid_vdw:          -13.895768
##########       Grid_es:            2.730841
##########    Int_energy:            1.936484

@<TRIPOS>MOLECULE
ligand
 24 24 1 0 0
SMALL
No Charge or Current Charge


@<TRIPOS>ATOM
      1 H1         21.7872    5.1468   12.3796 H       1  lig         0.1340
      2 H2         26.0317    4.9584   11.9741 H       1  lig         0.1340
      3 H3         21.9884    7.4925   13.0169 H       1  lig         0.1475
      4 H4         26.2462    7.3132   12.6655 H       1  lig         0.1475
      5 H5         22.8675    3.3454   11.1426 H       1  lig         0.0877
      6 H6         24.5915    3.1658   11.0656 H       1  lig         0.0877
      7 H7         24.3368    2.7634   13.7267 H       1  lig         0.0966
      8 H8         25.2114    1.2099   12.0509 H       1  lig         0.4431
      9 H9         24.1946    0.3812   13.0670 H       1  lig         0.4431
     10 H10        23.6619    0.8362   11.5558 H       1  lig         0.4431
     11 H11        24.9697    9.1699   12.8590 H       1  lig         0.4214
     12 C1         22.7698    5.6072   12.4444 C.ar    1  lig        -0.0999
     13 C2         25.1372    5.5270   12.2175 C.ar    1  lig        -0.0999
     14 C3         22.8852    6.9239   12.7963 C.ar    1  lig        -0.1787
     15 C4         25.2684    6.8452   12.6106 C.ar    1  lig        -0.1787
     16 C5         23.8977    4.9005   12.1594 C.ar    1  lig        -0.1394
     17 C6         24.1032    7.5390   12.9151 C.ar    1  lig         0.1292
     18 C7         22.3057    2.3019   13.3970 C.2     1  lig         0.9321
     19 C8         23.7777    3.4461   11.7453 C.3     1  lig        -0.0452
     20 C9         23.7230    2.4316   12.8880 C.3     1  lig        -0.0740
     21 N1         24.2317    1.1592   12.3774 N.4     1  lig        -0.8252
     22 O1         22.0148    3.0768   14.3056 O.co2   1  lig        -0.7573
     23 O2         21.4829    1.4484   12.9572 O.co2   1  lig        -0.7573
     24 O3         24.1301    8.7721   13.2313 O.3     1  lig        -0.4913
@<TRIPOS>BOND
     1     1    12    1
     2     2    13    1
     3     3    14    1
     4     4    15    1
     5     5    19    1
     6     6    19    1
     7     7    20    1
     8     8    21    1
     9     9    21    1
    10    10    21    1
    11    11    24    1
    12    12    14   ar
    13    12    16   ar
    14    13    15   ar
    15    13    16   ar
    16    14    17   ar
    17    15    17   ar
    18    16    19    1
    19    17    24    1
    20    18    20    1
    21    18    22    1
    22    18    23    1
    23    19    20    1
    24    20    21    1
@<TRIPOS>SUBSTRUCTURE
     1 lig         1 TEMP              0 ****  ****    0 ROOT


########## Name:		ligand
########## HA_RMSDs:		15.6416
########## HA_RMSDh:		15.6009
########## HA_RMSDm:		13.5348
########## Cluster Size:	1
##########    Grid Score:          -11.156651
##########      Grid_vdw:          -12.020957
##########       Grid_es:            0.864307
##########    Int_energy:            3.328140

@<TRIPOS>MOLECULE
ligand
 24 24 1 0 0
SMALL
No Charge or Current Charge


@<TRIPOS>ATOM
      1 H1         26.1621    6.2273   12.3281 H       1  lig         0.1340
      2 H2         29.6973    7.5452   14.3235 H       1  lig         0.1340
      3 H3         24.8969    7.9424   13.5141 H       1  lig         0.1475
      4 H4         28.4166    9.2467   15.5620 H       1  lig         0.1475
      5 H5         28.5786    5.8232   11.4528 H       1  lig         0.0877
      6 H6         29.8754    5.9047   12.6026 H       1  lig         0.0877
      7 H7         29.4331    3.6588   12.8210 H       1  lig         0.0966
      8 H8         27.7479    3.7417   11.0490 H       1  lig         0.4431
      9 H9         27.1893    2.7683   12.2711 H       1  lig         0.4431
     10 H10        26.6126    4.3242   12.1250 H       1  lig         0.4431
     11 H11        24.9276    9.1594   15.3597 H       1  lig         0.4214
     12 C1         26.6667    6.8777   13.0381 C.ar    1  lig        -0.0999
     13 C2         28.6264    7.6338   14.1564 C.ar    1  lig        -0.0999
     14 C3         25.9607    7.8439   13.7005 C.ar    1  lig        -0.1787
     15 C4         27.9157    8.5868   14.8608 C.ar    1  lig        -0.1787
     16 C5         28.0035    6.7643   13.2685 C.ar    1  lig        -0.1394
     17 C6         26.5490    8.6692   14.6218 C.ar    1  lig         0.1292
     18 C7         28.1207    4.1994   14.3806 C.2     1  lig         0.9321
     19 C8         28.7990    5.7112   12.5208 C.3     1  lig        -0.0452
     20 C9         28.5301    4.2618   12.9269 C.3     1  lig        -0.0740
     21 N1         27.4833    3.7410   12.0485 N.4     1  lig        -0.8252
     22 O1         29.0558    4.2272   15.1777 O.co2   1  lig        -0.7573
     23 O2         26.9199    4.0941   14.7622 O.co2   1  lig        -0.7573
     24 O3         25.8302    9.5556   15.1865 O.3     1  lig        -0.4913
@<TRIPOS>BOND
     1     1    12    1
     2     2    13    1
     3     3    14    1
     4     4    15    1
     5     5    19    1
     6     6    19    1
     7     7    20    1
     8     8    21    1
     9     9    21    1
    10    10    21    1
    11    11    24    1
    12    12    14   ar
    13    12    16   ar
    14    13    15   ar
    15    13    16   ar
    16    14    17   ar
    17    15    17   ar
    18    16    19    1
    19    17    24    1
    20    18    20    1
    21    18    22    1
    22    18    23    1
    23    19    20    1
    24    20    21    1
@<TRIPOS>SUBSTRUCTURE
     1 lig         1 TEMP              0 ****  ****    0 ROOT


########## Name:		ligand
########## HA_RMSDs:		16.0443
########## HA_RMSDh:		15.9923
########## HA_RMSDm:		13.6130
########## Cluster Size:	1
##########    Grid Score:          -11.064893
##########      Grid_vdw:          -11.306555
##########       Grid_es:            0.241662
##########    Int_energy:            4.116028

@<TRIPOS>MOLECULE
ligand
 24 24 1 0 0
SMALL
No Charge or Current Charge


@<TRIPOS>ATOM
      1 H1         27.7446    4.9353   12.9378 H       1  lig         0.1340
      2 H2         23.5556    5.7510   12.9844 H       1  lig         0.1340
      3 H3         27.2596    2.6778   12.1521 H       1  lig         0.1475
      4 H4         23.0560    3.4567   12.2390 H       1  lig         0.1475
      5 H5         27.0506    7.0630   13.3743 H       1  lig         0.0877
      6 H6         25.4948    7.6255   12.8511 H       1  lig         0.0877
      7 H7         24.5512    6.9614   15.1371 H       1  lig         0.0966
      8 H8         25.2628    9.2328   14.5705 H       1  lig         0.4431
      9 H9         25.6524    8.9315   16.1549 H       1  lig         0.4431
     10 H10        26.8374    8.8673   14.9861 H       1  lig         0.4431
     11 H11        23.9980    1.5965   11.5931 H       1  lig         0.4214
     12 C1         26.7135    4.6223   12.7949 C.ar    1  lig        -0.0999
     13 C2         24.3740    5.0574   12.8062 C.ar    1  lig        -0.0999
     14 C3         26.4388    3.3587   12.3492 C.ar    1  lig        -0.1787
     15 C4         24.0833    3.7707   12.3947 C.ar    1  lig        -0.1787
     16 C5         25.6802    5.4761   13.0318 C.ar    1  lig        -0.1394
     17 C6         25.1551    2.9126   12.1786 C.ar    1  lig         0.1292
     18 C7         26.4196    6.3414   15.8932 C.2     1  lig         0.9321
     19 C8         25.9763    6.8870   13.5036 C.3     1  lig        -0.0452
     20 C9         25.6006    7.1961   14.9532 C.3     1  lig        -0.0740
     21 N1         25.8340    8.6221   15.1785 N.4     1  lig        -0.8252
     22 O1         26.2164    5.1332   15.7954 O.co2   1  lig        -0.7573
     23 O2         27.2289    6.8167   16.7405 O.co2   1  lig        -0.7573
     24 O3         24.9784    1.7285   11.7450 O.3     1  lig        -0.4913
@<TRIPOS>BOND
     1     1    12    1
     2     2    13    1
     3     3    14    1
     4     4    15    1
     5     5    19    1
     6     6    19    1
     7     7    20    1
     8     8    21    1
     9     9    21    1
    10    10    21    1
    11    11    24    1
    12    12    14   ar
    13    12    16   ar
    14    13    15   ar
    15    13    16   ar
    16    14    17   ar
    17    15    17   ar
    18    16    19    1
    19    17    24    1
    20    18    20    1
    21    18    22    1
    22    18    23    1
    23    19    20    1
    24    20    21    1
@<TRIPOS>SUBSTRUCTURE
     1 lig         1 TEMP              0 ****  ****    0 ROOT


########## Name:		ligand
########## HA_RMSDs:		10.3951
########## HA_RMSDh:		10.3877
########## HA_RMSDm:		8.2147
########## Cluster Size:	1
##########    Grid Score:          -11.037597
##########      Grid_vdw:          -11.956661
##########       Grid_es:            0.919064
##########    Int_energy:            2.861221

@<TRIPOS>MOLECULE
ligand
 24 24 1 0 0
SMALL
No Charge or Current Charge


@<TRIPOS>ATOM
      1 H1         19.3639   15.2071   28.1977 H       1  lig         0.1340
      2 H2         16.2844   14.9003   25.2586 H       1  lig         0.1340
      3 H3         18.2106   17.1323   29.1528 H       1  lig         0.1475
      4 H4         15.1406   16.8745   26.1876 H       1  lig         0.1475
      5 H5         18.4246   13.7375   24.9876 H       1  lig         0.0877
      6 H6         19.7003   13.8387   26.1594 H       1  lig         0.0877
      7 H7         17.8400   11.7244   25.8454 H       1  lig         0.0966
      8 H8         16.2799   13.0535   27.1820 H       1  lig         0.4431
      9 H9         16.7902   11.7602   28.0875 H       1  lig         0.4431
     10 H10        17.4398   13.2691   28.3626 H       1  lig         0.4431
     11 H11        15.2441   18.3489   27.7929 H       1  lig         0.4214
     12 C1         18.4434   15.5658   27.7441 C.ar    1  lig        -0.0999
     13 C2         16.7117   15.4090   26.1196 C.ar    1  lig        -0.0999
     14 C3         17.7917   16.6418   28.2810 C.ar    1  lig        -0.1787
     15 C4         16.0662   16.5194   26.6292 C.ar    1  lig        -0.1787
     16 C5         17.9086   14.9479   26.6556 C.ar    1  lig        -0.1394
     17 C6         16.6431   17.1438   27.7288 C.ar    1  lig         0.1292
     18 C7         19.3819   11.7065   27.2839 C.2     1  lig         0.9321
     19 C8         18.6119   13.7393   26.0677 C.3     1  lig        -0.0452
     20 C9         18.1944   12.3838   26.6391 C.3     1  lig        -0.0740
     21 N1         17.1191   12.6193   27.6018 N.4     1  lig        -0.8252
     22 O1         19.7735   12.2372   28.3210 O.co2   1  lig        -0.7573
     23 O2         19.9584   10.6943   26.7920 O.co2   1  lig        -0.7573
     24 O3         16.0844   18.1385   28.2942 O.3     1  lig        -0.4913
@<TRIPOS>BOND
     1     1    12    1
     2     2    13    1
     3     3    14    1
     4     4    15    1
     5     5    19    1
     6     6    19    1
     7     7    20    1
     8     8    21    1
     9     9    21    1
    10    10    21    1
    11    11    24    1
    12    12    14   ar
    13    12    16   ar
    14    13    15   ar
    15    13    16   ar
    16    14    17   ar
    17    15    17   ar
    18    16    19    1
    19    17    24    1
    20    18    20    1
    21    18    22    1
    22    18    23    1
    23    19    20    1
    24    20    21    1
@<TRIPOS>SUBSTRUCTURE
     1 lig         1 TEMP              0 ****  ****    0 ROOT


########## Name:		ligand
########## HA_RMSDs:		13.0671
########## HA_RMSDh:		13.0187
########## HA_RMSDm:		11.4508
########## Cluster Size:	1
##########    Grid Score:          -10.977552
##########      Grid_vdw:           -8.330734
##########       Grid_es:           -2.646818
##########    Int_energy:            3.017579

@<TRIPOS>MOLECULE
ligand
 24 24 1 0 0
SMALL
No Charge or Current Charge


@<TRIPOS>ATOM
      1 H1         11.9173    7.3396   22.2701 H       1  lig         0.1340
      2 H2         10.1272    9.1955   25.6710 H       1  lig         0.1340
      3 H3         12.4797    9.5497   21.4052 H       1  lig         0.1475
      4 H4         10.6478   11.4322   24.7793 H       1  lig         0.1475
      5 H5          9.8834    6.8913   25.3553 H       1  lig         0.0877
      6 H6         10.1251    6.1467   23.8068 H       1  lig         0.0877
      7 H7         11.4678    5.2759   25.9084 H       1  lig         0.0966
      8 H8         12.3648    7.4830   26.4660 H       1  lig         0.4431
      9 H9         13.6254    6.4795   26.0700 H       1  lig         0.4431
     10 H10        13.0797    7.5973   24.9621 H       1  lig         0.4431
     11 H11        11.4670   12.4590   23.0122 H       1  lig         0.4214
     12 C1         11.6280    8.2277   22.8263 C.ar    1  lig        -0.0999
     13 C2         10.6421    9.2835   24.7173 C.ar    1  lig        -0.0999
     14 C3         11.9469    9.4681   22.3463 C.ar    1  lig        -0.1787
     15 C4         10.9238   10.5425   24.2223 C.ar    1  lig        -0.1787
     16 C5         10.9675    8.1303   24.0125 C.ar    1  lig        -0.1394
     17 C6         11.5813   10.6149   22.9999 C.ar    1  lig         0.1292
     18 C7         12.4365    5.1242   24.0414 C.2     1  lig         0.9321
     19 C8         10.6305    6.7581   24.5641 C.3     1  lig        -0.0452
     20 C9         11.8066    5.9618   25.1306 C.3     1  lig        -0.0740
     21 N1         12.7589    6.9170   25.6958 N.4     1  lig        -0.8252
     22 O1         13.5517    5.4998   23.6866 O.co2   1  lig        -0.7573
     23 O2         11.8627    4.1334   23.5048 O.co2   1  lig        -0.7573
     24 O3         11.9280   11.7334   22.4997 O.3     1  lig        -0.4913
@<TRIPOS>BOND
     1     1    12    1
     2     2    13    1
     3     3    14    1
     4     4    15    1
     5     5    19    1
     6     6    19    1
     7     7    20    1
     8     8    21    1
     9     9    21    1
    10    10    21    1
    11    11    24    1
    12    12    14   ar
    13    12    16   ar
    14    13    15   ar
    15    13    16   ar
    16    14    17   ar
    17    15    17   ar
    18    16    19    1
    19    17    24    1
    20    18    20    1
    21    18    22    1
    22    18    23    1
    23    19    20    1
    24    20    21    1
@<TRIPOS>SUBSTRUCTURE
     1 lig         1 TEMP              0 ****  ****    0 ROOT


########## Name:		ligand
########## HA_RMSDs:		17.2651
########## HA_RMSDh:		17.2465
########## HA_RMSDm:		15.7103
########## Cluster Size:	1
##########    Grid Score:          -10.763895
##########      Grid_vdw:           -8.116410
##########       Grid_es:           -2.647485
##########    Int_energy:            3.253810

@<TRIPOS>MOLECULE
ligand
 24 24 1 0 0
SMALL
No Charge or Current Charge


@<TRIPOS>ATOM
      1 H1          6.9880    6.8699   26.0856 H       1  lig         0.1340
      2 H2          6.2778    4.1572   22.8680 H       1  lig         0.1340
      3 H3          4.7531    7.7894   25.7558 H       1  lig         0.1475
      4 H4          4.0386    5.1149   22.4970 H       1  lig         0.1475
      5 H5          8.4034    4.9738   25.7607 H       1  lig         0.0877
      6 H6          8.1612    3.8048   24.5016 H       1  lig         0.0877
      7 H7         10.0743    5.8985   24.5430 H       1  lig         0.0966
      8 H8          8.3015    7.3705   23.7202 H       1  lig         0.4431
      9 H9          9.3923    7.1138   22.4966 H       1  lig         0.4431
     10 H10         7.9431    6.2926   22.4973 H       1  lig         0.4431
     11 H11         2.8937    7.5008   24.8798 H       1  lig         0.4214
     12 C1          6.3548    6.4809   25.2923 C.ar    1  lig        -0.0999
     13 C2          5.9344    4.9727   23.5002 C.ar    1  lig        -0.0999
     14 C3          5.0991    6.9909   25.1086 C.ar    1  lig        -0.1787
     15 C4          4.6795    5.5075   23.2799 C.ar    1  lig        -0.1787
     16 C5          6.7807    5.4724   24.4833 C.ar    1  lig        -0.1394
     17 C6          4.2760    6.5494   24.1067 C.ar    1  lig         0.1292
     18 C7          9.9229    4.4957   22.9757 C.2     1  lig         0.9321
     19 C8          8.1629    4.8844   24.6949 C.3     1  lig        -0.0452
     20 C9          9.2895    5.5250   23.8835 C.3     1  lig        -0.0740
     21 N1          8.7146    6.6342   23.1234 N.4     1  lig        -0.8252
     22 O1          9.1433    3.9495   22.1982 O.co2   1  lig        -0.7573
     23 O2         11.1480    4.1860   23.0216 O.co2   1  lig        -0.7573
     24 O3          3.1143    7.0613   24.0081 O.3     1  lig        -0.4913
@<TRIPOS>BOND
     1     1    12    1
     2     2    13    1
     3     3    14    1
     4     4    15    1
     5     5    19    1
     6     6    19    1
     7     7    20    1
     8     8    21    1
     9     9    21    1
    10    10    21    1
    11    11    24    1
    12    12    14   ar
    13    12    16   ar
    14    13    15   ar
    15    13    16   ar
    16    14    17   ar
    17    15    17   ar
    18    16    19    1
    19    17    24    1
    20    18    20    1
    21    18    22    1
    22    18    23    1
    23    19    20    1
    24    20    21    1
@<TRIPOS>SUBSTRUCTURE
     1 lig         1 TEMP              0 ****  ****    0 ROOT


########## Name:		ligand
########## HA_RMSDs:		14.2964
########## HA_RMSDh:		14.2726
########## HA_RMSDm:		12.7283
########## Cluster Size:	1
##########    Grid Score:          -10.761773
##########      Grid_vdw:          -10.225844
##########       Grid_es:           -0.535929
##########    Int_energy:            6.046753

@<TRIPOS>MOLECULE
ligand
 24 24 1 0 0
SMALL
No Charge or Current Charge


@<TRIPOS>ATOM
      1 H1         13.2163   14.4579   31.7291 H       1  lig         0.1340
      2 H2         17.4147   15.2225   31.7983 H       1  lig         0.1340
      3 H3         12.8472   16.7530   30.9909 H       1  lig         0.1475
      4 H4         17.0455   17.5563   31.1010 H       1  lig         0.1475
      5 H5         16.5884   13.2143   32.6834 H       1  lig         0.0877
      6 H6         14.9203   13.0110   33.1154 H       1  lig         0.0877
      7 H7         14.6186   12.4716   30.4984 H       1  lig         0.0966
      8 H8         14.2258   10.9655   32.3864 H       1  lig         0.4431
      9 H9         15.0294   10.1323   31.1977 H       1  lig         0.4431
     10 H10        15.8643   10.6820   32.5301 H       1  lig         0.4431
     11 H11        13.7034   18.7103   30.9301 H       1  lig         0.4214
     12 C1         14.0629   15.1277   31.6016 C.ar    1  lig        -0.0999
     13 C2         16.4002   15.5741   31.6258 C.ar    1  lig        -0.0999
     14 C3         13.8592   16.4136   31.1824 C.ar    1  lig        -0.1787
     15 C4         16.2030   16.8866   31.2415 C.ar    1  lig        -0.1787
     16 C5         15.3358   14.7039   31.8316 C.ar    1  lig        -0.1394
     17 C6         14.8926   17.2999   31.0320 C.ar    1  lig         0.1292
     18 C7         16.6929   12.1126   30.3751 C.2     1  lig         0.9321
     19 C8         15.5732   13.2724   32.2738 C.3     1  lig        -0.0452
     20 C9         15.4219   12.2070   31.1876 C.3     1  lig        -0.0740
     21 N1         15.1081   10.9404   31.8480 N.4     1  lig        -0.8252
     22 O1         17.4880   13.0316   30.5592 O.co2   1  lig        -0.7573
     23 O2         16.9216   11.1872   29.5444 O.co2   1  lig        -0.7573
     24 O3         14.6265   18.4759   30.6226 O.3     1  lig        -0.4913
@<TRIPOS>BOND
     1     1    12    1
     2     2    13    1
     3     3    14    1
     4     4    15    1
     5     5    19    1
     6     6    19    1
     7     7    20    1
     8     8    21    1
     9     9    21    1
    10    10    21    1
    11    11    24    1
    12    12    14   ar
    13    12    16   ar
    14    13    15   ar
    15    13    16   ar
    16    14    17   ar
    17    15    17   ar
    18    16    19    1
    19    17    24    1
    20    18    20    1
    21    18    22    1
    22    18    23    1
    23    19    20    1
    24    20    21    1
@<TRIPOS>SUBSTRUCTURE
     1 lig         1 TEMP              0 ****  ****    0 ROOT


########## Name:		ligand
########## HA_RMSDs:		16.1868
########## HA_RMSDh:		16.1734
########## HA_RMSDm:		14.1665
########## Cluster Size:	1
##########    Grid Score:          -10.733289
##########      Grid_vdw:           -9.875414
##########       Grid_es:           -0.857875
##########    Int_energy:            6.928964

@<TRIPOS>MOLECULE
ligand
 24 24 1 0 0
SMALL
No Charge or Current Charge


@<TRIPOS>ATOM
      1 H1          6.6413    7.8624   27.2869 H       1  lig         0.1340
      2 H2          9.2860    8.3976   23.9801 H       1  lig         0.1340
      3 H3          7.9598    9.4750   28.5558 H       1  lig         0.1475
      4 H4         10.6510    9.9895   25.2730 H       1  lig         0.1475
      5 H5          7.7524    6.4695   24.1097 H       1  lig         0.0877
      6 H6          6.6320    6.2596   25.4178 H       1  lig         0.0877
      7 H7          5.8648    7.0919   22.9594 H       1  lig         0.0966
      8 H8          7.1873    9.1429   23.1367 H       1  lig         0.4431
      9 H9          5.5782    9.5465   23.1108 H       1  lig         0.4431
     10 H10         6.4077    9.5498   24.5553 H       1  lig         0.4431
     11 H11        10.3599   11.3700   27.1337 H       1  lig         0.4214
     12 C1          7.5205    8.3161   26.8363 C.ar    1  lig        -0.0999
     13 C2          9.0033    8.6356   25.0028 C.ar    1  lig        -0.0999
     14 C3          8.2585    9.2248   27.5437 C.ar    1  lig        -0.1787
     15 C4          9.7791    9.5246   25.7220 C.ar    1  lig        -0.1787
     16 C5          7.8942    8.0124   25.5632 C.ar    1  lig        -0.1394
     17 C6          9.3873    9.8028   27.0263 C.ar    1  lig         0.1292
     18 C7          4.6274    7.4993   24.6177 C.2     1  lig         0.9321
     19 C8          7.0681    7.0236   24.7628 C.3     1  lig        -0.0452
     20 C9          5.9548    7.6270   23.9059 C.3     1  lig        -0.0740
     21 N1          6.2983    9.0255   23.6513 N.4     1  lig        -0.8252
     22 O1          4.7057    7.4557   25.8435 O.co2   1  lig        -0.7573
     23 O2          3.5195    7.4104   24.0150 O.co2   1  lig        -0.7573
     24 O3         10.0134   10.6522   27.7389 O.3     1  lig        -0.4913
@<TRIPOS>BOND
     1     1    12    1
     2     2    13    1
     3     3    14    1
     4     4    15    1
     5     5    19    1
     6     6    19    1
     7     7    20    1
     8     8    21    1
     9     9    21    1
    10    10    21    1
    11    11    24    1
    12    12    14   ar
    13    12    16   ar
    14    13    15   ar
    15    13    16   ar
    16    14    17   ar
    17    15    17   ar
    18    16    19    1
    19    17    24    1
    20    18    20    1
    21    18    22    1
    22    18    23    1
    23    19    20    1
    24    20    21    1
@<TRIPOS>SUBSTRUCTURE
     1 lig         1 TEMP              0 ****  ****    0 ROOT


########## Name:		ligand
########## HA_RMSDs:		15.2142
########## HA_RMSDh:		15.1719
########## HA_RMSDm:		13.6162
########## Cluster Size:	1
##########    Grid Score:          -10.696519
##########      Grid_vdw:          -10.369196
##########       Grid_es:           -0.327323
##########    Int_energy:            7.938706

@<TRIPOS>MOLECULE
ligand
 24 24 1 0 0
SMALL
No Charge or Current Charge


@<TRIPOS>ATOM
      1 H1         25.6105    6.6338   13.5919 H       1  lig         0.1340
      2 H2         23.1284    4.1337   16.0012 H       1  lig         0.1340
      3 H3         26.6788    7.4664   15.6203 H       1  lig         0.1475
      4 H4         24.1687    5.0071   18.0565 H       1  lig         0.1475
      5 H5         22.7034    4.3122   13.7082 H       1  lig         0.0877
      6 H6         23.3063    5.6365   12.7630 H       1  lig         0.0877
      7 H7         25.4243    4.2969   12.3061 H       1  lig         0.0966
      8 H8         23.5074    4.3284   10.7859 H       1  lig         0.4431
      9 H9         24.1786    2.8112   10.7663 H       1  lig         0.4431
     10 H10        22.7846    3.0867   11.6353 H       1  lig         0.4431
     11 H11        25.7817    6.2974   18.7713 H       1  lig         0.4214
     12 C1         25.2810    6.2740   14.5634 C.ar    1  lig        -0.0999
     13 C2         23.9129    4.8831   15.9258 C.ar    1  lig        -0.0999
     14 C3         25.8821    6.7352   15.7021 C.ar    1  lig        -0.1787
     15 C4         24.4856    5.3716   17.0845 C.ar    1  lig        -0.1787
     16 C5         24.2879    5.3494   14.6710 C.ar    1  lig        -0.1394
     17 C6         25.4836    6.3293   16.9482 C.ar    1  lig         0.1292
     18 C7         24.7914    2.6103   13.4025 C.2     1  lig         0.9321
     19 C8         23.6317    4.8147   13.4123 C.3     1  lig        -0.0452
     20 C9         24.4730    3.8416   12.5856 C.3     1  lig        -0.0740
     21 N1         23.7127    3.5087   11.3815 N.4     1  lig        -0.8252
     22 O1         25.2275    2.8411   14.5282 O.co2   1  lig        -0.7573
     23 O2         24.6568    1.4311   12.9666 O.co2   1  lig        -0.7573
     24 O3         26.1018    6.7905   17.9613 O.3     1  lig        -0.4913
@<TRIPOS>BOND
     1     1    12    1
     2     2    13    1
     3     3    14    1
     4     4    15    1
     5     5    19    1
     6     6    19    1
     7     7    20    1
     8     8    21    1
     9     9    21    1
    10    10    21    1
    11    11    24    1
    12    12    14   ar
    13    12    16   ar
    14    13    15   ar
    15    13    16   ar
    16    14    17   ar
    17    15    17   ar
    18    16    19    1
    19    17    24    1
    20    18    20    1
    21    18    22    1
    22    18    23    1
    23    19    20    1
    24    20    21    1
@<TRIPOS>SUBSTRUCTURE
     1 lig         1 TEMP              0 ****  ****    0 ROOT


########## Name:		ligand
########## HA_RMSDs:		12.6365
########## HA_RMSDh:		12.5547
########## HA_RMSDm:		11.2845
########## Cluster Size:	1
##########    Grid Score:          -10.565114
##########      Grid_vdw:           -7.566296
##########       Grid_es:           -2.998818
##########    Int_energy:            3.163989

@<TRIPOS>MOLECULE
ligand
 24 24 1 0 0
SMALL
No Charge or Current Charge


@<TRIPOS>ATOM
      1 H1         10.4182    7.5541   24.2922 H       1  lig         0.1340
      2 H2         12.9500   10.4407   26.1559 H       1  lig         0.1340
      3 H3          9.2132    9.3707   23.1982 H       1  lig         0.1475
      4 H4         11.7058   12.2825   25.0935 H       1  lig         0.1475
      5 H5         12.7891    8.0973   26.9832 H       1  lig         0.0877
      6 H6         11.8569    6.8934   26.1512 H       1  lig         0.0877
      7 H7         14.1745    6.3923   25.7285 H       1  lig         0.0966
      8 H8         15.0218    8.6207   26.2790 H       1  lig         0.4431
      9 H9         15.6344    8.1663   24.8055 H       1  lig         0.4431
     10 H10        14.3645    9.2419   24.8762 H       1  lig         0.4431
     11 H11        10.1895   12.0428   22.6331 H       1  lig         0.4214
     12 C1         10.7063    8.5851   24.4812 C.ar    1  lig        -0.0999
     13 C2         12.1106   10.2115   25.5037 C.ar    1  lig        -0.0999
     14 C3         10.0358    9.6055   23.8648 C.ar    1  lig        -0.1787
     15 C4         11.4148   11.2517   24.9177 C.ar    1  lig        -0.1787
     16 C5         11.7440    8.8847   25.3095 C.ar    1  lig        -0.1394
     17 C6         10.3473   10.9199   24.0919 C.ar    1  lig         0.1292
     18 C7         13.4337    6.9168   23.8250 C.2     1  lig         0.9321
     19 C8         12.5085    7.7586   25.9790 C.3     1  lig        -0.0452
     20 C9         13.7680    7.2857   25.2522 C.3     1  lig        -0.0740
     21 N1         14.7497    8.3679   25.3141 N.4     1  lig        -0.8252
     22 O1         12.7563    5.8984   23.7045 O.co2   1  lig        -0.7573
     23 O2         13.8378    7.5733   22.8228 O.co2   1  lig        -0.7573
     24 O3          9.6888   11.8142   23.4691 O.3     1  lig        -0.4913
@<TRIPOS>BOND
     1     1    12    1
     2     2    13    1
     3     3    14    1
     4     4    15    1
     5     5    19    1
     6     6    19    1
     7     7    20    1
     8     8    21    1
     9     9    21    1
    10    10    21    1
    11    11    24    1
    12    12    14   ar
    13    12    16   ar
    14    13    15   ar
    15    13    16   ar
    16    14    17   ar
    17    15    17   ar
    18    16    19    1
    19    17    24    1
    20    18    20    1
    21    18    22    1
    22    18    23    1
    23    19    20    1
    24    20    21    1
@<TRIPOS>SUBSTRUCTURE
     1 lig         1 TEMP              0 ****  ****    0 ROOT


########## Name:		ligand
########## HA_RMSDs:		16.4316
########## HA_RMSDh:		16.3860
########## HA_RMSDm:		14.3638
########## Cluster Size:	1
##########    Grid Score:          -10.540991
##########      Grid_vdw:           -9.268486
##########       Grid_es:           -1.272505
##########    Int_energy:            8.549504

@<TRIPOS>MOLECULE
ligand
 24 24 1 0 0
SMALL
No Charge or Current Charge


@<TRIPOS>ATOM
      1 H1          5.9243    7.4174   25.9465 H       1  lig         0.1340
      2 H2          8.8149   10.5519   26.1344 H       1  lig         0.1340
      3 H3          6.0948    7.4552   23.5137 H       1  lig         0.1475
      4 H4          8.9549   10.6297   23.6760 H       1  lig         0.1475
      5 H5          7.3794    9.9935   28.0669 H       1  lig         0.0877
      6 H6          6.2456    8.6806   28.0309 H       1  lig         0.0877
      7 H7          8.3812    8.3643   29.4568 H       1  lig         0.0966
      8 H8          9.9182    9.1796   27.7364 H       1  lig         0.4431
      9 H9         10.3046    7.6062   28.0944 H       1  lig         0.4431
     10 H10         9.4517    7.9521   26.7060 H       1  lig         0.4431
     11 H11         6.6227    8.8157   21.8285 H       1  lig         0.4214
     12 C1          6.5870    8.1299   25.4618 C.ar    1  lig        -0.0999
     13 C2          8.2054    9.8726   25.5431 C.ar    1  lig        -0.0999
     14 C3          6.6886    8.1496   24.0979 C.ar    1  lig        -0.1787
     15 C4          8.2860    9.9284   24.1648 C.ar    1  lig        -0.1787
     16 C5          7.3414    8.9971   26.1909 C.ar    1  lig        -0.1394
     17 C6          7.4910    9.0459   23.4431 C.ar    1  lig         0.1292
     18 C7          7.7887    6.6363   28.4032 C.2     1  lig         0.9321
     19 C8          7.2530    8.9664   27.7049 C.3     1  lig        -0.0452
     20 C9          8.2692    8.0694   28.4124 C.3     1  lig        -0.0740
     21 N1          9.5486    8.2142   27.7189 N.4     1  lig        -0.8252
     22 O1          6.6066    6.4943   28.0983 O.co2   1  lig        -0.7573
     23 O2          8.5217    5.6538   28.7133 O.co2   1  lig        -0.7573
     24 O3          7.5459    8.9929   22.1720 O.3     1  lig        -0.4913
@<TRIPOS>BOND
     1     1    12    1
     2     2    13    1
     3     3    14    1
     4     4    15    1
     5     5    19    1
     6     6    19    1
     7     7    20    1
     8     8    21    1
     9     9    21    1
    10    10    21    1
    11    11    24    1
    12    12    14   ar
    13    12    16   ar
    14    13    15   ar
    15    13    16   ar
    16    14    17   ar
    17    15    17   ar
    18    16    19    1
    19    17    24    1
    20    18    20    1
    21    18    22    1
    22    18    23    1
    23    19    20    1
    24    20    21    1
@<TRIPOS>SUBSTRUCTURE
     1 lig         1 TEMP              0 ****  ****    0 ROOT


########## Name:		ligand
########## HA_RMSDs:		15.9991
########## HA_RMSDh:		15.9991
########## HA_RMSDm:		13.8606
########## Cluster Size:	1
##########    Grid Score:          -10.362508
##########      Grid_vdw:          -10.321586
##########       Grid_es:           -0.040922
##########    Int_energy:            5.856293

@<TRIPOS>MOLECULE
ligand
 24 24 1 0 0
SMALL
No Charge or Current Charge


@<TRIPOS>ATOM
      1 H1         26.8635    4.9574   12.8032 H       1  lig         0.1340
      2 H2         22.6040    4.7358   12.6505 H       1  lig         0.1340
      3 H3         26.6999    7.3908   12.8277 H       1  lig         0.1475
      4 H4         22.4333    7.1933   12.6246 H       1  lig         0.1475
      5 H5         25.5641    2.8941   13.4763 H       1  lig         0.0877
      6 H6         23.8948    2.7323   13.0316 H       1  lig         0.0877
      7 H7         24.5714    2.8286   10.5814 H       1  lig         0.0966
      8 H8         24.2803    0.7278   11.8016 H       1  lig         0.4431
      9 H9         25.5309    0.5507   10.7256 H       1  lig         0.4431
     10 H10        25.8586    0.7958   12.3403 H       1  lig         0.4431
     11 H11        23.6249    9.0206   12.6882 H       1  lig         0.4214
     12 C1         25.8877    5.4343   12.7573 C.ar    1  lig        -0.0999
     13 C2         23.5114    5.3344   12.6799 C.ar    1  lig        -0.0999
     14 C3         25.7928    6.7986   12.7764 C.ar    1  lig        -0.1787
     15 C4         23.4055    6.7119   12.6582 C.ar    1  lig        -0.1787
     16 C5         24.7458    4.6955   12.7023 C.ar    1  lig        -0.1394
     17 C6         24.5869    7.4432   12.6954 C.ar    1  lig         0.1292
     18 C7         26.6329    3.0175   10.9830 C.2     1  lig         0.9321
     19 C8         24.8403    3.1815   12.7046 C.3     1  lig        -0.0452
     20 C9         25.2553    2.5391   11.3806 C.3     1  lig        -0.0740
     21 N1         25.2187    1.0882   11.5598 N.4     1  lig        -0.8252
     22 O1         26.6489    4.0879   10.3792 O.co2   1  lig        -0.7573
     23 O2         27.6910    2.3656   11.2161 O.co2   1  lig        -0.7573
     24 O3         24.5771    8.7158   12.7352 O.3     1  lig        -0.4913
@<TRIPOS>BOND
     1     1    12    1
     2     2    13    1
     3     3    14    1
     4     4    15    1
     5     5    19    1
     6     6    19    1
     7     7    20    1
     8     8    21    1
     9     9    21    1
    10    10    21    1
    11    11    24    1
    12    12    14   ar
    13    12    16   ar
    14    13    15   ar
    15    13    16   ar
    16    14    17   ar
    17    15    17   ar
    18    16    19    1
    19    17    24    1
    20    18    20    1
    21    18    22    1
    22    18    23    1
    23    19    20    1
    24    20    21    1
@<TRIPOS>SUBSTRUCTURE
     1 lig         1 TEMP              0 ****  ****    0 ROOT


########## Name:		ligand
########## HA_RMSDs:		17.0808
########## HA_RMSDh:		17.0257
########## HA_RMSDm:		13.6854
########## Cluster Size:	1
##########    Grid Score:          -10.175179
##########      Grid_vdw:          -10.950749
##########       Grid_es:            0.775571
##########    Int_energy:            1.867652

@<TRIPOS>MOLECULE
ligand
 24 24 1 0 0
SMALL
No Charge or Current Charge


@<TRIPOS>ATOM
      1 H1         26.7834    4.1219   14.2537 H       1  lig         0.1340
      2 H2         24.1218    2.8923   11.1521 H       1  lig         0.1340
      3 H3         28.2773    2.2917   13.6476 H       1  lig         0.1475
      4 H4         25.6020    1.0118   10.5673 H       1  lig         0.1475
      5 H5         23.3941    4.4101   12.9710 H       1  lig         0.0877
      6 H6         24.4897    4.9863   14.1868 H       1  lig         0.0877
      7 H7         24.4803    5.8688   11.2567 H       1  lig         0.0966
      8 H8         26.7139    5.8345   12.2550 H       1  lig         0.4431
      9 H9         26.2213    7.4117   12.1042 H       1  lig         0.4431
     10 H10        26.1540    6.6638   13.5910 H       1  lig         0.4431
     11 H11        28.5515    0.5791   12.5711 H       1  lig         0.4214
     12 C1         26.5098    3.4444   13.4488 C.ar    1  lig        -0.0999
     13 C2         25.0442    2.7457   11.7091 C.ar    1  lig        -0.0999
     14 C3         27.3483    2.4206   13.1032 C.ar    1  lig        -0.1787
     15 C4         25.8645    1.6841   11.3780 C.ar    1  lig        -0.1787
     16 C5         25.3494    3.6076   12.7562 C.ar    1  lig        -0.1394
     17 C6         27.0337    1.5280   12.1131 C.ar    1  lig         0.1292
     18 C7         23.6058    7.0777   12.7469 C.2     1  lig         0.9321
     19 C8         24.4246    4.7546   13.1168 C.3     1  lig        -0.0452
     20 C9         24.6260    6.0460   12.3233 C.3     1  lig        -0.0740
     21 N1         25.9925    6.5074   12.5646 N.4     1  lig        -0.8252
     22 O1         22.4548    6.8370   12.3891 O.co2   1  lig        -0.7573
     23 O2         23.9006    8.1260   13.3896 O.co2   1  lig        -0.7573
     24 O3         27.8720    0.6102   11.8369 O.3     1  lig        -0.4913
@<TRIPOS>BOND
     1     1    12    1
     2     2    13    1
     3     3    14    1
     4     4    15    1
     5     5    19    1
     6     6    19    1
     7     7    20    1
     8     8    21    1
     9     9    21    1
    10    10    21    1
    11    11    24    1
    12    12    14   ar
    13    12    16   ar
    14    13    15   ar
    15    13    16   ar
    16    14    17   ar
    17    15    17   ar
    18    16    19    1
    19    17    24    1
    20    18    20    1
    21    18    22    1
    22    18    23    1
    23    19    20    1
    24    20    21    1
@<TRIPOS>SUBSTRUCTURE
     1 lig         1 TEMP              0 ****  ****    0 ROOT


########## Name:		ligand
########## HA_RMSDs:		14.6606
########## HA_RMSDh:		14.6528
########## HA_RMSDm:		11.3997
########## Cluster Size:	1
##########    Grid Score:          -10.143070
##########      Grid_vdw:          -10.615108
##########       Grid_es:            0.472037
##########    Int_energy:            5.593747

@<TRIPOS>MOLECULE
ligand
 24 24 1 0 0
SMALL
No Charge or Current Charge


@<TRIPOS>ATOM
      1 H1         16.1526   16.1961   33.3160 H       1  lig         0.1340
      2 H2         18.2852   18.3431   30.3064 H       1  lig         0.1340
      3 H3         14.1142   16.4486   32.0007 H       1  lig         0.1475
      4 H4         16.2205   18.6451   28.9968 H       1  lig         0.1475
      5 H5         19.1197   18.0769   32.7430 H       1  lig         0.0877
      6 H6         18.3870   16.8752   33.7577 H       1  lig         0.0877
      7 H7         20.6250   16.4278   32.2533 H       1  lig         0.0966
      8 H8         19.3415   16.6311   30.1801 H       1  lig         0.4431
      9 H9         19.8496   15.0598   30.3409 H       1  lig         0.4431
     10 H10        18.2729   15.4591   30.7003 H       1  lig         0.4431
     11 H11        13.1742   17.6207   30.4724 H       1  lig         0.4214
     12 C1         16.1800   16.7400   32.3752 C.ar    1  lig        -0.0999
     13 C2         17.3504   17.9329   30.6812 C.ar    1  lig        -0.0999
     14 C3         15.0396   16.8784   31.6329 C.ar    1  lig        -0.1787
     15 C4         16.1966   18.1133   29.9427 C.ar    1  lig        -0.1787
     16 C5         17.3407   17.2731   31.9047 C.ar    1  lig        -0.1394
     17 C6         15.0212   17.5763   30.4545 C.ar    1  lig         0.1292
     18 C7         19.5201   14.8047   33.0227 C.2     1  lig         0.9321
     19 C8         18.6152   17.1041   32.7097 C.3     1  lig        -0.0452
     20 C9         19.6003   16.0596   32.1839 C.3     1  lig        -0.0740
     21 N1         19.2645   15.7962   30.7852 N.4     1  lig        -0.8252
     22 O1         18.3790   14.3940   33.2222 O.co2   1  lig        -0.7573
     23 O2         20.5331   14.2296   33.5146 O.co2   1  lig        -0.7573
     24 O3         13.9248   17.6486   29.8110 O.3     1  lig        -0.4913
@<TRIPOS>BOND
     1     1    12    1
     2     2    13    1
     3     3    14    1
     4     4    15    1
     5     5    19    1
     6     6    19    1
     7     7    20    1
     8     8    21    1
     9     9    21    1
    10    10    21    1
    11    11    24    1
    12    12    14   ar
    13    12    16   ar
    14    13    15   ar
    15    13    16   ar
    16    14    17   ar
    17    15    17   ar
    18    16    19    1
    19    17    24    1
    20    18    20    1
    21    18    22    1
    22    18    23    1
    23    19    20    1
    24    20    21    1
@<TRIPOS>SUBSTRUCTURE
     1 lig         1 TEMP              0 ****  ****    0 ROOT


########## Name:		ligand
########## HA_RMSDs:		14.2848
########## HA_RMSDh:		14.2408
########## HA_RMSDm:		10.8437
########## Cluster Size:	1
##########    Grid Score:           -9.999900
##########      Grid_vdw:           -8.356463
##########       Grid_es:           -1.643437
##########    Int_energy:            4.194701

@<TRIPOS>MOLECULE
ligand
 24 24 1 0 0
SMALL
No Charge or Current Charge


@<TRIPOS>ATOM
      1 H1         15.8199   12.3713   31.0023 H       1  lig         0.1340
      2 H2         17.6486   16.0544   29.8597 H       1  lig         0.1340
      3 H3         14.3843   12.5157   29.0359 H       1  lig         0.1475
      4 H4         16.1677   16.2320   27.8989 H       1  lig         0.1475
      5 H5         17.6661   13.0924   32.1525 H       1  lig         0.0877
      6 H6         18.7645   14.2610   31.4904 H       1  lig         0.0877
      7 H7         18.0749   14.9200   33.7620 H       1  lig         0.0966
      8 H8         15.8785   13.8436   33.7009 H       1  lig         0.4431
      9 H9         15.6790   15.4397   34.1079 H       1  lig         0.4431
     10 H10        15.3501   14.9358   32.5547 H       1  lig         0.4431
     11 H11        14.4790   15.2558   26.8951 H       1  lig         0.4214
     12 C1         15.9019   13.2250   30.3344 C.ar    1  lig        -0.0999
     13 C2         16.9124   15.2758   29.6743 C.ar    1  lig        -0.0999
     14 C3         15.1019   13.3058   29.2280 C.ar    1  lig        -0.1787
     15 C4         16.0819   15.3878   28.5757 C.ar    1  lig        -0.1787
     16 C5         16.8075   14.2145   30.5660 C.ar    1  lig        -0.1394
     17 C6         15.1527   14.3743   28.3725 C.ar    1  lig         0.1292
     18 C7         17.5632   16.5084   32.4728 C.2     1  lig         0.9321
     19 C8         17.7153   14.1214   31.7777 C.3     1  lig        -0.0452
     20 C9         17.3911   15.0769   32.9265 C.3     1  lig        -0.0740
     21 N1         16.0190   14.8077   33.3548 N.4     1  lig        -0.8252
     22 O1         18.7163   16.9295   32.5322 O.co2   1  lig        -0.7573
     23 O2         16.6039   17.2383   32.0910 O.co2   1  lig        -0.7573
     24 O3         14.3879   14.3713   27.3545 O.3     1  lig        -0.4913
@<TRIPOS>BOND
     1     1    12    1
     2     2    13    1
     3     3    14    1
     4     4    15    1
     5     5    19    1
     6     6    19    1
     7     7    20    1
     8     8    21    1
     9     9    21    1
    10    10    21    1
    11    11    24    1
    12    12    14   ar
    13    12    16   ar
    14    13    15   ar
    15    13    16   ar
    16    14    17   ar
    17    15    17   ar
    18    16    19    1
    19    17    24    1
    20    18    20    1
    21    18    22    1
    22    18    23    1
    23    19    20    1
    24    20    21    1
@<TRIPOS>SUBSTRUCTURE
     1 lig         1 TEMP              0 ****  ****    0 ROOT


########## Name:		ligand
########## HA_RMSDs:		15.3562
########## HA_RMSDh:		15.3354
########## HA_RMSDm:		13.1474
########## Cluster Size:	1
##########    Grid Score:           -9.951557
##########      Grid_vdw:          -12.659962
##########       Grid_es:            2.708404
##########    Int_energy:            1.166945

@<TRIPOS>MOLECULE
ligand
 24 24 1 0 0
SMALL
No Charge or Current Charge


@<TRIPOS>ATOM
      1 H1         27.2071    4.3396   13.2620 H       1  lig         0.1340
      2 H2         23.6929    6.6992   12.7153 H       1  lig         0.1340
      3 H3         28.3686    6.3234   14.0769 H       1  lig         0.1475
      4 H4         24.8745    8.7173   13.4902 H       1  lig         0.1475
      5 H5         23.6662    4.4849   12.0678 H       1  lig         0.0877
      6 H6         25.1451    3.7465   11.5403 H       1  lig         0.0877
      7 H7         24.9245    3.3232   14.4054 H       1  lig         0.0966
      8 H8         26.1124    1.9519   12.7637 H       1  lig         0.4431
      9 H9         24.9853    1.0073   13.5319 H       1  lig         0.4431
     10 H10        24.6754    1.5819   11.9995 H       1  lig         0.4431
     11 H11        28.2319    8.2667   14.6698 H       1  lig         0.4214
     12 C1         26.6866    5.2932   13.3010 C.ar    1  lig        -0.0999
     13 C2         24.7369    6.6263   13.0111 C.ar    1  lig        -0.0999
     14 C3         27.3339    6.4061   13.7626 C.ar    1  lig        -0.1787
     15 C4         25.3927    7.7651   13.4380 C.ar    1  lig        -0.1787
     16 C5         25.3852    5.4002   12.9166 C.ar    1  lig        -0.1394
     17 C6         26.7265    7.6330   13.8061 C.ar    1  lig         0.1292
     18 C7         22.9902    2.8375   13.7202 C.2     1  lig         0.9321
     19 C8         24.6522    4.1663   12.4256 C.3     1  lig        -0.0452
     20 C9         24.4628    3.0517   13.4550 C.3     1  lig        -0.0740
     21 N1         25.0969    1.8450   12.9253 N.4     1  lig        -0.8252
     22 O1         22.5947    3.2766   14.7978 O.co2   1  lig        -0.7573
     23 O2         22.2200    2.2289   12.9231 O.co2   1  lig        -0.7573
     24 O3         27.3882    8.6200   14.2636 O.3     1  lig        -0.4913
@<TRIPOS>BOND
     1     1    12    1
     2     2    13    1
     3     3    14    1
     4     4    15    1
     5     5    19    1
     6     6    19    1
     7     7    20    1
     8     8    21    1
     9     9    21    1
    10    10    21    1
    11    11    24    1
    12    12    14   ar
    13    12    16   ar
    14    13    15   ar
    15    13    16   ar
    16    14    17   ar
    17    15    17   ar
    18    16    19    1
    19    17    24    1
    20    18    20    1
    21    18    22    1
    22    18    23    1
    23    19    20    1
    24    20    21    1
@<TRIPOS>SUBSTRUCTURE
     1 lig         1 TEMP              0 ****  ****    0 ROOT


########## Name:		ligand
########## HA_RMSDs:		13.2553
########## HA_RMSDh:		13.2026
########## HA_RMSDm:		9.6407
########## Cluster Size:	1
##########    Grid Score:           -9.890991
##########      Grid_vdw:           -9.054809
##########       Grid_es:           -0.836182
##########    Int_energy:            1.562750

@<TRIPOS>MOLECULE
ligand
 24 24 1 0 0
SMALL
No Charge or Current Charge


@<TRIPOS>ATOM
      1 H1         17.1168   14.2330   28.1535 H       1  lig         0.1340
      2 H2         13.1696   12.9270   29.1176 H       1  lig         0.1340
      3 H3         16.6668   13.7431   25.8070 H       1  lig         0.1475
      4 H4         12.7256   12.3831   26.7562 H       1  lig         0.1475
      5 H5         14.6766   13.4083   30.8404 H       1  lig         0.0877
      6 H6         16.3905   13.4569   30.5743 H       1  lig         0.0877
      7 H7         15.4384   16.0105   29.7074 H       1  lig         0.0966
      8 H8         17.5507   15.4589   30.8123 H       1  lig         0.4431
      9 H9         16.7803   16.6362   31.6918 H       1  lig         0.4431
     10 H10        16.7383   15.0547   32.2132 H       1  lig         0.4431
     11 H11        15.4233   12.5787   24.4881 H       1  lig         0.4214
     12 C1         16.1535   13.8224   27.8619 C.ar    1  lig        -0.0999
     13 C2         13.9462   13.0965   28.3755 C.ar    1  lig        -0.0999
     14 C3         15.8965   13.5519   26.5460 C.ar    1  lig        -0.1787
     15 C4         13.6899   12.7820   27.0546 C.ar    1  lig        -0.1787
     16 C5         15.1800   13.5894   28.7844 C.ar    1  lig        -0.1394
     17 C6         14.7070   13.0110   26.1354 C.ar    1  lig         0.1292
     18 C7         14.2335   15.7396   31.4166 C.2     1  lig         0.9321
     19 C8         15.4477   13.9087   30.2429 C.3     1  lig        -0.0452
     20 C9         15.4621   15.3937   30.6069 C.3     1  lig        -0.0740
     21 N1         16.6920   15.6565   31.3532 N.4     1  lig        -0.8252
     22 O1         13.1680   15.5755   30.8263 O.co2   1  lig        -0.7573
     23 O2         14.2814   16.1933   32.5959 O.co2   1  lig        -0.7573
     24 O3         14.5349   12.8016   24.8913 O.3     1  lig        -0.4913
@<TRIPOS>BOND
     1     1    12    1
     2     2    13    1
     3     3    14    1
     4     4    15    1
     5     5    19    1
     6     6    19    1
     7     7    20    1
     8     8    21    1
     9     9    21    1
    10    10    21    1
    11    11    24    1
    12    12    14   ar
    13    12    16   ar
    14    13    15   ar
    15    13    16   ar
    16    14    17   ar
    17    15    17   ar
    18    16    19    1
    19    17    24    1
    20    18    20    1
    21    18    22    1
    22    18    23    1
    23    19    20    1
    24    20    21    1
@<TRIPOS>SUBSTRUCTURE
     1 lig         1 TEMP              0 ****  ****    0 ROOT


########## Name:		ligand
########## HA_RMSDs:		15.3755
########## HA_RMSDh:		15.3468
########## HA_RMSDm:		13.0950
########## Cluster Size:	1
##########    Grid Score:           -9.630518
##########      Grid_vdw:           -8.885584
##########       Grid_es:           -0.744934
##########    Int_energy:            4.951573

@<TRIPOS>MOLECULE
ligand
 24 24 1 0 0
SMALL
No Charge or Current Charge


@<TRIPOS>ATOM
      1 H1         25.7677    7.2367   15.9090 H       1  lig         0.1340
      2 H2         24.2070    3.6029   14.3040 H       1  lig         0.1340
      3 H3         24.5147    8.4769   14.2235 H       1  lig         0.1475
      4 H4         22.9785    4.8461   12.5679 H       1  lig         0.1475
      5 H5         26.4707    5.2794   16.8055 H       1  lig         0.0877
      6 H6         25.1625    4.1576   17.0078 H       1  lig         0.0877
      7 H7         26.2356    2.8876   14.9368 H       1  lig         0.0966
      8 H8         26.1555    2.1055   17.2539 H       1  lig         0.4431
      9 H9         27.6479    1.7494   16.6221 H       1  lig         0.4431
     10 H10        27.4728    3.0537   17.6432 H       1  lig         0.4431
     11 H11        22.1078    7.5158   12.7464 H       1  lig         0.4214
     12 C1         25.1658    6.7007   15.1794 C.ar    1  lig        -0.0999
     13 C2         24.2779    4.6877   14.2730 C.ar    1  lig        -0.0999
     14 C3         24.4579    7.3940   14.2366 C.ar    1  lig        -0.1787
     15 C4         23.5904    5.3755   13.2913 C.ar    1  lig        -0.1787
     16 C5         25.0837    5.3422   15.1975 C.ar    1  lig        -0.1394
     17 C6         23.7065    6.7605   13.2826 C.ar    1  lig         0.1292
     18 C7         28.0108    4.0046   15.1564 C.2     1  lig         0.9321
     19 C8         25.8466    4.5663   16.2543 C.3     1  lig        -0.0452
     20 C9         26.7362    3.4355   15.7365 C.3     1  lig        -0.0740
     21 N1         27.0078    2.5352   16.8564 N.4     1  lig        -0.8252
     22 O1         28.0352    5.2309   15.0784 O.co2   1  lig        -0.7573
     23 O2         28.9708    3.2895   14.7492 O.co2   1  lig        -0.7573
     24 O3         23.0620    7.4738   12.4476 O.3     1  lig        -0.4913
@<TRIPOS>BOND
     1     1    12    1
     2     2    13    1
     3     3    14    1
     4     4    15    1
     5     5    19    1
     6     6    19    1
     7     7    20    1
     8     8    21    1
     9     9    21    1
    10    10    21    1
    11    11    24    1
    12    12    14   ar
    13    12    16   ar
    14    13    15   ar
    15    13    16   ar
    16    14    17   ar
    17    15    17   ar
    18    16    19    1
    19    17    24    1
    20    18    20    1
    21    18    22    1
    22    18    23    1
    23    19    20    1
    24    20    21    1
@<TRIPOS>SUBSTRUCTURE
     1 lig         1 TEMP              0 ****  ****    0 ROOT


########## Name:		ligand
########## HA_RMSDs:		16.1368
########## HA_RMSDh:		16.1072
########## HA_RMSDm:		14.1053
########## Cluster Size:	1
##########    Grid Score:           -9.559666
##########      Grid_vdw:           -8.806049
##########       Grid_es:           -0.753617
##########    Int_energy:            2.729003

@<TRIPOS>MOLECULE
ligand
 24 24 1 0 0
SMALL
No Charge or Current Charge


@<TRIPOS>ATOM
      1 H1         26.5563    5.9429   15.1593 H       1  lig         0.1340
      2 H2         23.8200    3.6772   12.7941 H       1  lig         0.1340
      3 H3         25.9548    7.9329   13.8839 H       1  lig         0.1475
      4 H4         23.2447    5.6729   11.4691 H       1  lig         0.1475
      5 H5         25.8164    3.7630   15.8692 H       1  lig         0.0877
      6 H6         24.7341    2.7780   14.9370 H       1  lig         0.0877
      7 H7         27.4096    2.2882   15.1476 H       1  lig         0.0966
      8 H8         27.9472    4.3388   13.9259 H       1  lig         0.4431
      9 H9         28.3816    3.0349   12.9964 H       1  lig         0.4431
     10 H10        26.9770    3.8622   12.6541 H       1  lig         0.4431
     11 H11        23.6653    7.8051   11.2624 H       1  lig         0.4214
     12 C1         25.8346    5.8687   14.3499 C.ar    1  lig        -0.0999
     13 C2         24.2979    4.6266   13.0238 C.ar    1  lig        -0.0999
     14 C3         25.4914    6.9842   13.6366 C.ar    1  lig        -0.1787
     15 C4         23.9736    5.7387   12.2707 C.ar    1  lig        -0.1787
     16 C5         25.2431    4.6821   14.0416 C.ar    1  lig        -0.1394
     17 C6         24.6059    6.9338   12.5927 C.ar    1  lig         0.1292
     18 C7         26.2938    1.4060   13.5909 C.2     1  lig         0.9321
     19 C8         25.6000    3.4445   14.8428 C.3     1  lig        -0.0452
     20 C9         26.7870    2.6340   14.3212 C.3     1  lig        -0.0740
     21 N1         27.5694    3.5052   13.4450 N.4     1  lig        -0.8252
     22 O1         26.3126    0.3725   14.2559 O.co2   1  lig        -0.7573
     23 O2         25.9193    1.4171   12.3832 O.co2   1  lig        -0.7573
     24 O3         24.3235    8.0171   11.9860 O.3     1  lig        -0.4913
@<TRIPOS>BOND
     1     1    12    1
     2     2    13    1
     3     3    14    1
     4     4    15    1
     5     5    19    1
     6     6    19    1
     7     7    20    1
     8     8    21    1
     9     9    21    1
    10    10    21    1
    11    11    24    1
    12    12    14   ar
    13    12    16   ar
    14    13    15   ar
    15    13    16   ar
    16    14    17   ar
    17    15    17   ar
    18    16    19    1
    19    17    24    1
    20    18    20    1
    21    18    22    1
    22    18    23    1
    23    19    20    1
    24    20    21    1
@<TRIPOS>SUBSTRUCTURE
     1 lig         1 TEMP              0 ****  ****    0 ROOT


########## Name:		ligand
########## HA_RMSDs:		14.4099
########## HA_RMSDh:		14.3611
########## HA_RMSDm:		10.3756
########## Cluster Size:	1
##########    Grid Score:           -9.094007
##########      Grid_vdw:          -13.714483
##########       Grid_es:            4.620476
##########    Int_energy:            4.124421

@<TRIPOS>MOLECULE
ligand
 24 24 1 0 0
SMALL
No Charge or Current Charge


@<TRIPOS>ATOM
      1 H1         15.6720   17.6591   32.6835 H       1  lig         0.1340
      2 H2         18.1872   17.7399   29.2364 H       1  lig         0.1340
      3 H3         13.7897   18.3216   31.2810 H       1  lig         0.1475
      4 H4         16.3013   18.4575   27.8231 H       1  lig         0.1475
      5 H5         17.8150   16.7783   32.8174 H       1  lig         0.0877
      6 H6         18.7991   16.4589   31.4245 H       1  lig         0.0877
      7 H7         18.6616   19.1108   32.9424 H       1  lig         0.0966
      8 H8         18.9625   19.4171   30.5336 H       1  lig         0.4431
      9 H9         20.4011   19.7373   31.2957 H       1  lig         0.4431
     10 H10        20.1842   18.2799   30.5188 H       1  lig         0.4431
     11 H11        13.1017   18.7860   29.4408 H       1  lig         0.4214
     12 C1         15.8247   17.8368   31.6220 C.ar    1  lig        -0.0999
     13 C2         17.2069   17.8812   29.6855 C.ar    1  lig        -0.0999
     14 C3         14.7698   18.2031   30.8322 C.ar    1  lig        -0.1787
     15 C4         16.1570   18.2903   28.8858 C.ar    1  lig        -0.1787
     16 C5         17.0509   17.6804   31.0522 C.ar    1  lig        -0.1394
     17 C6         14.9198   18.4617   29.4955 C.ar    1  lig         0.1292
     18 C7         20.2919   17.7963   33.1894 C.2     1  lig         0.9321
     19 C8         18.2217   17.2514   31.9160 C.3     1  lig        -0.0452
     20 C9         19.1803   18.3654   32.3378 C.3     1  lig        -0.0740
     21 N1         19.6983   18.9904   31.1214 N.4     1  lig        -0.8252
     22 O1         19.9763   16.8099   33.8512 O.co2   1  lig        -0.7573
     23 O2         21.4494   18.3013   33.2526 O.co2   1  lig        -0.7573
     24 O3         13.8881   18.7823   28.8217 O.3     1  lig        -0.4913
@<TRIPOS>BOND
     1     1    12    1
     2     2    13    1
     3     3    14    1
     4     4    15    1
     5     5    19    1
     6     6    19    1
     7     7    20    1
     8     8    21    1
     9     9    21    1
    10    10    21    1
    11    11    24    1
    12    12    14   ar
    13    12    16   ar
    14    13    15   ar
    15    13    16   ar
    16    14    17   ar
    17    15    17   ar
    18    16    19    1
    19    17    24    1
    20    18    20    1
    21    18    22    1
    22    18    23    1
    23    19    20    1
    24    20    21    1
@<TRIPOS>SUBSTRUCTURE
     1 lig         1 TEMP              0 ****  ****    0 ROOT


########## Name:		ligand
########## HA_RMSDs:		16.5925
########## HA_RMSDh:		16.5560
########## HA_RMSDm:		14.9336
########## Cluster Size:	1
##########    Grid Score:           -8.947072
##########      Grid_vdw:           -8.522589
##########       Grid_es:           -0.424483
##########    Int_energy:            4.103290

@<TRIPOS>MOLECULE
ligand
 24 24 1 0 0
SMALL
No Charge or Current Charge


@<TRIPOS>ATOM
      1 H1          9.6914    6.4274   23.3062 H       1  lig         0.1340
      2 H2          5.9398    6.2201   25.3305 H       1  lig         0.1340
      3 H3          8.5028    6.8848   21.2261 H       1  lig         0.1475
      4 H4          4.7307    6.6322   23.2240 H       1  lig         0.1475
      5 H5          8.3111    5.0191   26.1055 H       1  lig         0.0877
      6 H6          9.7020    5.9068   25.5688 H       1  lig         0.0877
      7 H7          9.2423    7.0353   27.5491 H       1  lig         0.0966
      8 H8          7.2314    5.7191   28.0080 H       1  lig         0.4431
      9 H9          6.9069    7.3156   28.3219 H       1  lig         0.4431
     10 H10         6.3609    6.6240   26.9084 H       1  lig         0.4431
     11 H11         5.0576    7.2493   21.1348 H       1  lig         0.4214
     12 C1          8.6050    6.4633   23.3008 C.ar    1  lig        -0.0999
     13 C2          6.5024    6.3595   24.4104 C.ar    1  lig        -0.0999
     14 C3          7.9361    6.7250   22.1369 C.ar    1  lig        -0.1787
     15 C4          5.8150    6.5834   23.2329 C.ar    1  lig        -0.1787
     16 C5          7.8895    6.2728   24.4430 C.ar    1  lig        -0.1394
     17 C6          6.5680    6.7553   22.0774 C.ar    1  lig         0.1292
     18 C7          8.2969    8.4183   26.2683 C.2     1  lig         0.9321
     19 C8          8.6237    6.0054   25.7431 C.3     1  lig        -0.0452
     20 C9          8.3996    7.0296   26.8562 C.3     1  lig        -0.0740
     21 N1          7.1786    6.6530   27.5675 N.4     1  lig        -0.8252
     22 O1          9.3713    8.9150   25.9371 O.co2   1  lig        -0.7573
     23 O2          7.2055    9.0456   26.1497 O.co2   1  lig        -0.7573
     24 O3          6.0165    7.0214   20.9609 O.3     1  lig        -0.4913
@<TRIPOS>BOND
     1     1    12    1
     2     2    13    1
     3     3    14    1
     4     4    15    1
     5     5    19    1
     6     6    19    1
     7     7    20    1
     8     8    21    1
     9     9    21    1
    10    10    21    1
    11    11    24    1
    12    12    14   ar
    13    12    16   ar
    14    13    15   ar
    15    13    16   ar
    16    14    17   ar
    17    15    17   ar
    18    16    19    1
    19    17    24    1
    20    18    20    1
    21    18    22    1
    22    18    23    1
    23    19    20    1
    24    20    21    1
@<TRIPOS>SUBSTRUCTURE
     1 lig         1 TEMP              0 ****  ****    0 ROOT


########## Name:		ligand
########## HA_RMSDs:		14.4914
########## HA_RMSDh:		14.4307
########## HA_RMSDm:		13.0370
########## Cluster Size:	1
##########    Grid Score:           -8.902107
##########      Grid_vdw:          -10.835493
##########       Grid_es:            1.933386
##########    Int_energy:            2.890238

@<TRIPOS>MOLECULE
ligand
 24 24 1 0 0
SMALL
No Charge or Current Charge


@<TRIPOS>ATOM
      1 H1         18.2270   19.1620   32.4041 H       1  lig         0.1340
      2 H2         16.8886   15.1399   31.9075 H       1  lig         0.1340
      3 H3         20.3945   18.3127   33.1318 H       1  lig         0.1475
      4 H4         19.0588   14.2748   32.6893 H       1  lig         0.1475
      5 H5         15.3002   17.0400   32.0301 H       1  lig         0.0877
      6 H6         15.8374   18.6863   32.1391 H       1  lig         0.0877
      7 H7         16.5942   18.6366   29.7638 H       1  lig         0.0966
      8 H8         14.2771   19.1887   30.3233 H       1  lig         0.4431
      9 H9         14.2970   18.3729   28.8787 H       1  lig         0.4431
     10 H10        13.8564   17.5743   30.2725 H       1  lig         0.4431
     11 H11        21.6289   16.6911   33.3051 H       1  lig         0.4214
     12 C1         18.3939   18.0897   32.4681 C.ar    1  lig        -0.0999
     13 C2         17.6713   15.8394   32.1913 C.ar    1  lig        -0.0999
     14 C3         19.6101   17.6107   32.8706 C.ar    1  lig        -0.1787
     15 C4         18.8828   15.3445   32.6348 C.ar    1  lig        -0.1787
     16 C5         17.4158   17.2046   32.1324 C.ar    1  lig        -0.1394
     17 C6         19.8580   16.2689   32.9901 C.ar    1  lig         0.1292
     18 C7         16.2490   16.5787   29.4589 C.2     1  lig         0.9321
     19 C8         16.0715   17.7268   31.6622 C.3     1  lig        -0.0452
     20 C9         15.9096   17.8797   30.1495 C.3     1  lig        -0.0740
     21 N1         14.5288   18.2849   29.8890 N.4     1  lig        -0.8252
     22 O1         17.3965   16.5141   29.0235 O.co2   1  lig        -0.7573
     23 O2         15.4212   15.6356   29.3040 O.co2   1  lig        -0.7573
     24 O3         21.0201   15.8983   33.3554 O.3     1  lig        -0.4913
@<TRIPOS>BOND
     1     1    12    1
     2     2    13    1
     3     3    14    1
     4     4    15    1
     5     5    19    1
     6     6    19    1
     7     7    20    1
     8     8    21    1
     9     9    21    1
    10    10    21    1
    11    11    24    1
    12    12    14   ar
    13    12    16   ar
    14    13    15   ar
    15    13    16   ar
    16    14    17   ar
    17    15    17   ar
    18    16    19    1
    19    17    24    1
    20    18    20    1
    21    18    22    1
    22    18    23    1
    23    19    20    1
    24    20    21    1
@<TRIPOS>SUBSTRUCTURE
     1 lig         1 TEMP              0 ****  ****    0 ROOT


########## Name:		ligand
########## HA_RMSDs:		13.9615
########## HA_RMSDh:		13.9493
########## HA_RMSDm:		12.2536
########## Cluster Size:	1
##########    Grid Score:           -8.433910
##########      Grid_vdw:          -11.019820
##########       Grid_es:            2.585910
##########    Int_energy:            3.567687

@<TRIPOS>MOLECULE
ligand
 24 24 1 0 0
SMALL
No Charge or Current Charge


@<TRIPOS>ATOM
      1 H1         15.6854   13.2789   32.1403 H       1  lig         0.1340
      2 H2         13.3875   16.1529   29.9781 H       1  lig         0.1340
      3 H3         15.6771   14.7750   34.0666 H       1  lig         0.1475
      4 H4         13.4178   17.6901   31.9030 H       1  lig         0.1475
      5 H5         15.5050   13.8039   29.2208 H       1  lig         0.0877
      6 H6         14.5172   12.6507   30.0604 H       1  lig         0.0877
      7 H7         13.4925   14.9226   28.2873 H       1  lig         0.0966
      8 H8         12.0307   14.4861   30.2003 H       1  lig         0.4431
      9 H9         11.3097   13.8880   28.8308 H       1  lig         0.4431
     10 H10        12.0707   12.8474   29.8856 H       1  lig         0.4431
     11 H11        14.1403   17.8983   33.9529 H       1  lig         0.4214
     12 C1         15.1906   14.2445   32.0730 C.ar    1  lig        -0.0999
     13 C2         13.9034   15.8580   30.8889 C.ar    1  lig        -0.0999
     14 C3         15.1798   15.0831   33.1534 C.ar    1  lig        -0.1787
     15 C4         13.9204   16.7299   31.9607 C.ar    1  lig        -0.1787
     16 C5         14.5570   14.6318   30.9323 C.ar    1  lig        -0.1394
     17 C6         14.5908   16.3188   33.1068 C.ar    1  lig         0.1292
     18 C7         13.5286   12.9309   27.5954 C.2     1  lig         0.9321
     19 C8         14.5435   13.6983   29.7368 C.3     1  lig        -0.0452
     20 C9         13.4183   13.9269   28.7270 C.3     1  lig        -0.0740
     21 N1         12.1481   13.7957   29.4397 N.4     1  lig        -0.8252
     22 O1         14.2165   13.3057   26.6484 O.co2   1  lig        -0.7573
     23 O2         12.9406   11.8115   27.5929 O.co2   1  lig        -0.7573
     24 O3         14.6072   17.0371   34.1580 O.3     1  lig        -0.4913
@<TRIPOS>BOND
     1     1    12    1
     2     2    13    1
     3     3    14    1
     4     4    15    1
     5     5    19    1
     6     6    19    1
     7     7    20    1
     8     8    21    1
     9     9    21    1
    10    10    21    1
    11    11    24    1
    12    12    14   ar
    13    12    16   ar
    14    13    15   ar
    15    13    16   ar
    16    14    17   ar
    17    15    17   ar
    18    16    19    1
    19    17    24    1
    20    18    20    1
    21    18    22    1
    22    18    23    1
    23    19    20    1
    24    20    21    1
@<TRIPOS>SUBSTRUCTURE
     1 lig         1 TEMP              0 ****  ****    0 ROOT


########## Name:		ligand
########## HA_RMSDs:		15.6015
########## HA_RMSDh:		15.5578
########## HA_RMSDm:		13.5077
########## Cluster Size:	1
##########    Grid Score:           -8.209904
##########      Grid_vdw:           -7.285640
##########       Grid_es:           -0.924264
##########    Int_energy:            6.641747

@<TRIPOS>MOLECULE
ligand
 24 24 1 0 0
SMALL
No Charge or Current Charge


@<TRIPOS>ATOM
      1 H1         24.0906    1.9944   15.2825 H       1  lig         0.1340
      2 H2         25.8671    5.8714   15.4513 H       1  lig         0.1340
      3 H3         23.2176    2.5305   13.0690 H       1  lig         0.1475
      4 H4         24.9464    6.4377   13.2376 H       1  lig         0.1475
      5 H5         25.6668    2.4826   16.9488 H       1  lig         0.0877
      6 H6         26.6010    3.9443   16.9857 H       1  lig         0.0877
      7 H7         24.6349    3.2736   18.8158 H       1  lig         0.0966
      8 H8         22.9149    3.7062   17.1302 H       1  lig         0.4431
      9 H9         22.8169    4.8746   18.3042 H       1  lig         0.4431
     10 H10        23.5429    5.2265   16.8470 H       1  lig         0.4431
     11 H11        23.3232    3.8138   11.4502 H       1  lig         0.4214
     12 C1         24.2800    2.9731   14.8489 C.ar    1  lig        -0.0999
     13 C2         25.2679    5.1368   14.9184 C.ar    1  lig        -0.0999
     14 C3         23.7962    3.2744   13.6056 C.ar    1  lig        -0.1787
     15 C4         24.7504    5.4663   13.6803 C.ar    1  lig        -0.1787
     16 C5         25.0136    3.9069   15.5142 C.ar    1  lig        -0.1394
     17 C6         23.9885    4.5025   13.0303 C.ar    1  lig         0.1292
     18 C7         25.4715    5.2086   18.7595 C.2     1  lig         0.9321
     19 C8         25.5741    3.5730   16.8836 C.3     1  lig        -0.0452
     20 C9         24.7544    4.0668   18.0762 C.3     1  lig        -0.0740
     21 N1         23.4428    4.4758   17.5753 N.4     1  lig        -0.8252
     22 O1         26.1932    5.8752   18.0211 O.co2   1  lig        -0.7573
     23 O2         25.3735    5.4522   19.9963 O.co2   1  lig        -0.7573
     24 O3         23.5217    4.7038   11.8629 O.3     1  lig        -0.4913
@<TRIPOS>BOND
     1     1    12    1
     2     2    13    1
     3     3    14    1
     4     4    15    1
     5     5    19    1
     6     6    19    1
     7     7    20    1
     8     8    21    1
     9     9    21    1
    10    10    21    1
    11    11    24    1
    12    12    14   ar
    13    12    16   ar
    14    13    15   ar
    15    13    16   ar
    16    14    17   ar
    17    15    17   ar
    18    16    19    1
    19    17    24    1
    20    18    20    1
    21    18    22    1
    22    18    23    1
    23    19    20    1
    24    20    21    1
@<TRIPOS>SUBSTRUCTURE
     1 lig         1 TEMP              0 ****  ****    0 ROOT


########## Name:		ligand
########## HA_RMSDs:		13.2844
########## HA_RMSDh:		13.2530
########## HA_RMSDm:		11.1804
########## Cluster Size:	1
##########    Grid Score:           -8.182501
##########      Grid_vdw:           -7.724885
##########       Grid_es:           -0.457616
##########    Int_energy:            3.088217

@<TRIPOS>MOLECULE
ligand
 24 24 1 0 0
SMALL
No Charge or Current Charge


@<TRIPOS>ATOM
      1 H1         18.6214   14.0195   29.2058 H       1  lig         0.1340
      2 H2         14.6179   13.8106   30.6700 H       1  lig         0.1340
      3 H3         19.3661   14.6597   31.4384 H       1  lig         0.1475
      4 H4         15.3562   14.5053   32.9153 H       1  lig         0.1475
      5 H5         16.8988   12.8768   27.9590 H       1  lig         0.0877
      6 H6         15.2446   12.8040   28.4775 H       1  lig         0.0877
      7 H7         15.7298   14.2684   26.4247 H       1  lig         0.0966
      8 H8         17.7322   15.3219   27.3559 H       1  lig         0.4431
      9 H9         16.6150   16.5022   27.0217 H       1  lig         0.4431
     10 H10        16.8326   15.9914   28.5922 H       1  lig         0.4431
     11 H11        18.8346   14.6345   33.4959 H       1  lig         0.4214
     12 C1         17.8954   14.1285   30.0075 C.ar    1  lig        -0.0999
     13 C2         15.6719   14.0111   30.8472 C.ar    1  lig        -0.0999
     14 C3         18.3109   14.4820   31.2617 C.ar    1  lig        -0.1787
     15 C4         16.0752   14.4066   32.1082 C.ar    1  lig        -0.1787
     16 C5         16.5712   13.8974   29.7932 C.ar    1  lig        -0.1394
     17 C6         17.4298   14.6553   32.2960 C.ar    1  lig         0.1292
     18 C7         14.3787   15.1617   27.7750 C.2     1  lig         0.9321
     19 C8         16.1042   13.4818   28.4112 C.3     1  lig        -0.0452
     20 C9         15.7547   14.6235   27.4560 C.3     1  lig        -0.0740
     21 N1         16.7834   15.6531   27.5986 N.4     1  lig        -0.8252
     22 O1         13.4606   14.6106   27.1718 O.co2   1  lig        -0.7573
     23 O2         14.1738   16.1226   28.5710 O.co2   1  lig        -0.7573
     24 O3         17.8932   14.9695   33.4396 O.3     1  lig        -0.4913
@<TRIPOS>BOND
     1     1    12    1
     2     2    13    1
     3     3    14    1
     4     4    15    1
     5     5    19    1
     6     6    19    1
     7     7    20    1
     8     8    21    1
     9     9    21    1
    10    10    21    1
    11    11    24    1
    12    12    14   ar
    13    12    16   ar
    14    13    15   ar
    15    13    16   ar
    16    14    17   ar
    17    15    17   ar
    18    16    19    1
    19    17    24    1
    20    18    20    1
    21    18    22    1
    22    18    23    1
    23    19    20    1
    24    20    21    1
@<TRIPOS>SUBSTRUCTURE
     1 lig         1 TEMP              0 ****  ****    0 ROOT


########## Name:		ligand
########## HA_RMSDs:		15.6958
########## HA_RMSDh:		15.6519
########## HA_RMSDm:		13.6057
########## Cluster Size:	1
##########    Grid Score:           -7.956999
##########      Grid_vdw:           -9.218678
##########       Grid_es:            1.261679
##########    Int_energy:            6.796587

@<TRIPOS>MOLECULE
ligand
 24 24 1 0 0
SMALL
No Charge or Current Charge


@<TRIPOS>ATOM
      1 H1         22.3709    4.2795   14.3838 H       1  lig         0.1340
      2 H2         26.5622    4.0759   15.1630 H       1  lig         0.1340
      3 H3         22.7726    6.1884   12.9197 H       1  lig         0.1475
      4 H4         26.9692    6.0344   13.7251 H       1  lig         0.1475
      5 H5         25.1471    2.6264   16.2669 H       1  lig         0.0877
      6 H6         23.5232    3.1352   16.6057 H       1  lig         0.0877
      7 H7         23.9804    0.7227   15.6153 H       1  lig         0.0966
      8 H8         25.2195    1.5691   13.6827 H       1  lig         0.4431
      9 H9         23.8432    0.8143   13.1449 H       1  lig         0.4431
     10 H10        23.9024    2.4778   13.2078 H       1  lig         0.4431
     11 H11        25.9086    7.6281   12.6031 H       1  lig         0.4214
     12 C1         23.3817    4.6577   14.2533 C.ar    1  lig        -0.0999
     13 C2         25.7229    4.5582   14.6676 C.ar    1  lig        -0.0999
     14 C3         23.6105    5.7246   13.4286 C.ar    1  lig        -0.1787
     15 C4         25.9605    5.6601   13.8685 C.ar    1  lig        -0.1787
     16 C5         24.4379    4.0732   14.8822 C.ar    1  lig        -0.1394
     17 C6         24.8630    6.2505   13.2532 C.ar    1  lig         0.1292
     18 C7         22.1482    1.6311   15.1008 C.2     1  lig         0.9321
     19 C8         24.1967    2.8746   15.7802 C.3     1  lig        -0.0452
     20 C9         23.6596    1.6219   15.0873 C.3     1  lig        -0.0740
     21 N1         24.1871    1.6076   13.7234 N.4     1  lig        -0.8252
     22 O1         21.6478    2.0528   16.1412 O.co2   1  lig        -0.7573
     23 O2         21.4403    1.2119   14.1406 O.co2   1  lig        -0.7573
     24 O3         25.0000    7.2346   12.4568 O.3     1  lig        -0.4913
@<TRIPOS>BOND
     1     1    12    1
     2     2    13    1
     3     3    14    1
     4     4    15    1
     5     5    19    1
     6     6    19    1
     7     7    20    1
     8     8    21    1
     9     9    21    1
    10    10    21    1
    11    11    24    1
    12    12    14   ar
    13    12    16   ar
    14    13    15   ar
    15    13    16   ar
    16    14    17   ar
    17    15    17   ar
    18    16    19    1
    19    17    24    1
    20    18    20    1
    21    18    22    1
    22    18    23    1
    23    19    20    1
    24    20    21    1
@<TRIPOS>SUBSTRUCTURE
     1 lig         1 TEMP              0 ****  ****    0 ROOT


########## Name:		ligand
########## HA_RMSDs:		15.5677
########## HA_RMSDh:		15.5153
########## HA_RMSDm:		12.6939
########## Cluster Size:	1
##########    Grid Score:           -7.947820
##########      Grid_vdw:           -7.045812
##########       Grid_es:           -0.902008
##########    Int_energy:            3.517347

@<TRIPOS>MOLECULE
ligand
 24 24 1 0 0
SMALL
No Charge or Current Charge


@<TRIPOS>ATOM
      1 H1         19.6335   18.8777   32.2104 H       1  lig         0.1340
      2 H2         21.7167   15.5561   30.5244 H       1  lig         0.1340
      3 H3         17.6023   17.5288   32.2670 H       1  lig         0.1475
      4 H4         19.6571   14.2043   30.5323 H       1  lig         0.1475
      5 H5         22.6521   17.8258   30.4489 H       1  lig         0.0877
      6 H6         21.8395   19.1946   31.1394 H       1  lig         0.0877
      7 H7         22.6034   18.7189   33.3410 H       1  lig         0.0966
      8 H8         24.4034   19.3429   31.8056 H       1  lig         0.4431
      9 H9         25.0100   18.2965   32.9413 H       1  lig         0.4431
     10 H10        24.6538   17.7403   31.4121 H       1  lig         0.4431
     11 H11        17.6160   14.1922   31.5306 H       1  lig         0.4214
     12 C1         19.6508   17.8580   31.8341 C.ar    1  lig        -0.0999
     13 C2         20.7941   15.9909   30.9016 C.ar    1  lig        -0.0999
     14 C3         18.5146   17.0976   31.8697 C.ar    1  lig        -0.1787
     15 C4         19.6427   15.2269   30.8957 C.ar    1  lig        -0.1787
     16 C5         20.7956   17.3090   31.3432 C.ar    1  lig        -0.1394
     17 C6         18.4830   15.8172   31.3841 C.ar    1  lig         0.1292
     18 C7         22.8717   16.6370   33.1396 C.2     1  lig         0.9321
     19 C8         22.0663   18.1371   31.3217 C.3     1  lig        -0.0452
     20 C9         22.9489   18.0333   32.5659 C.3     1  lig        -0.0740
     21 N1         24.3140   18.3806   32.1728 N.4     1  lig        -0.8252
     22 O1         22.0300   16.4921   34.0234 O.co2   1  lig        -0.7573
     23 O2         23.6270   15.6910   32.7743 O.co2   1  lig        -0.7573
     24 O3         17.3921   15.1656   31.4662 O.3     1  lig        -0.4913
@<TRIPOS>BOND
     1     1    12    1
     2     2    13    1
     3     3    14    1
     4     4    15    1
     5     5    19    1
     6     6    19    1
     7     7    20    1
     8     8    21    1
     9     9    21    1
    10    10    21    1
    11    11    24    1
    12    12    14   ar
    13    12    16   ar
    14    13    15   ar
    15    13    16   ar
    16    14    17   ar
    17    15    17   ar
    18    16    19    1
    19    17    24    1
    20    18    20    1
    21    18    22    1
    22    18    23    1
    23    19    20    1
    24    20    21    1
@<TRIPOS>SUBSTRUCTURE
     1 lig         1 TEMP              0 ****  ****    0 ROOT


########## Name:		ligand
########## HA_RMSDs:		15.7365
########## HA_RMSDh:		15.6843
########## HA_RMSDm:		14.1648
########## Cluster Size:	1
##########    Grid Score:           -7.651908
##########      Grid_vdw:           -5.756119
##########       Grid_es:           -1.895790
##########    Int_energy:            8.520426

@<TRIPOS>MOLECULE
ligand
 24 24 1 0 0
SMALL
No Charge or Current Charge


@<TRIPOS>ATOM
      1 H1         24.5541    5.2629   14.0016 H       1  lig         0.1340
      2 H2         25.8789    3.2432   17.5203 H       1  lig         0.1340
      3 H3         25.9386    7.1732   14.6205 H       1  lig         0.1475
      4 H4         27.2406    5.1884   18.1771 H       1  lig         0.1475
      5 H5         23.8634    3.1335   14.3429 H       1  lig         0.0877
      6 H6         24.8897    2.0503   15.2284 H       1  lig         0.0877
      7 H7         22.1780    2.5038   15.7260 H       1  lig         0.0966
      8 H8         22.7704    4.6270   16.7879 H       1  lig         0.4431
      9 H9         22.2441    3.5744   17.9575 H       1  lig         0.4431
     10 H10        23.8756    3.8531   17.7705 H       1  lig         0.4431
     11 H11        27.6128    7.3209   17.6441 H       1  lig         0.4214
     12 C1         25.1325    5.2361   14.9216 C.ar    1  lig        -0.0999
     13 C2         25.8902    4.1260   16.8853 C.ar    1  lig        -0.0999
     14 C3         25.9140    6.3038   15.2683 C.ar    1  lig        -0.1787
     15 C4         26.6518    5.2144   17.2657 C.ar    1  lig        -0.1787
     16 C5         25.1124    4.1436   15.7333 C.ar    1  lig        -0.1394
     17 C6         26.6398    6.3247   16.4297 C.ar    1  lig         0.1292
     18 C7         23.3675    1.3026   16.9867 C.2     1  lig         0.9321
     19 C8         24.2670    2.9456   15.3447 C.3     1  lig        -0.0452
     20 C9         23.1077    2.6164   16.2857 C.3     1  lig        -0.0740
     21 N1         22.9803    3.7197   17.2370 N.4     1  lig        -0.8252
     22 O1         24.5561    1.0325   17.1442 O.co2   1  lig        -0.7573
     23 O2         22.4486    0.5176   17.3583 O.co2   1  lig        -0.7573
     24 O3         27.3567    7.3476   16.6769 O.3     1  lig        -0.4913
@<TRIPOS>BOND
     1     1    12    1
     2     2    13    1
     3     3    14    1
     4     4    15    1
     5     5    19    1
     6     6    19    1
     7     7    20    1
     8     8    21    1
     9     9    21    1
    10    10    21    1
    11    11    24    1
    12    12    14   ar
    13    12    16   ar
    14    13    15   ar
    15    13    16   ar
    16    14    17   ar
    17    15    17   ar
    18    16    19    1
    19    17    24    1
    20    18    20    1
    21    18    22    1
    22    18    23    1
    23    19    20    1
    24    20    21    1
@<TRIPOS>SUBSTRUCTURE
     1 lig         1 TEMP              0 ****  ****    0 ROOT


########## Name:		ligand
########## HA_RMSDs:		14.0612
########## HA_RMSDh:		14.0106
########## HA_RMSDm:		10.3064
########## Cluster Size:	1
##########    Grid Score:           -7.439443
##########      Grid_vdw:           -8.132037
##########       Grid_es:            0.692594
##########    Int_energy:           10.639818

@<TRIPOS>MOLECULE
ligand
 24 24 1 0 0
SMALL
No Charge or Current Charge


@<TRIPOS>ATOM
      1 H1         18.6426   13.9708   30.1913 H       1  lig         0.1340
      2 H2         14.8007   15.6893   30.9000 H       1  lig         0.1340
      3 H3         18.5362   14.7716   27.8899 H       1  lig         0.1475
      4 H4         14.6648   16.4576   28.5633 H       1  lig         0.1475
      5 H5         15.7591   14.1845   32.4879 H       1  lig         0.0877
      6 H6         17.1952   13.2633   32.1723 H       1  lig         0.0877
      7 H7         17.4286   14.8446   34.1133 H       1  lig         0.0966
      8 H8         16.0712   16.6398   33.1533 H       1  lig         0.4431
      9 H9         17.5768   17.2406   33.5073 H       1  lig         0.4431
     10 H10        17.1877   16.8618   31.9326 H       1  lig         0.4431
     11 H11        17.5088   15.7674   26.4659 H       1  lig         0.4214
     12 C1         17.7633   14.5085   29.8459 C.ar    1  lig        -0.0999
     13 C2         15.6238   15.4806   30.2206 C.ar    1  lig        -0.0999
     14 C3         17.7033   14.9634   28.5574 C.ar    1  lig        -0.1787
     15 C4         15.5353   15.9099   28.9102 C.ar    1  lig        -0.1787
     16 C5         16.7193   14.7601   30.6823 C.ar    1  lig        -0.1394
     17 C6         16.6058   15.6233   28.0714 C.ar    1  lig         0.1292
     18 C7         19.0504   15.0788   32.7860 C.2     1  lig         0.9321
     19 C8         16.7872   14.2800   32.1196 C.3     1  lig        -0.0452
     20 C9         17.5712   15.1723   33.0825 C.3     1  lig        -0.0740
     21 N1         17.0748   16.5389   32.9261 N.4     1  lig        -0.8252
     22 O1         19.3953   14.0425   32.2222 O.co2   1  lig        -0.7573
     23 O2         19.8844   15.9708   33.1139 O.co2   1  lig        -0.7573
     24 O3         16.6298   16.0310   26.8653 O.3     1  lig        -0.4913
@<TRIPOS>BOND
     1     1    12    1
     2     2    13    1
     3     3    14    1
     4     4    15    1
     5     5    19    1
     6     6    19    1
     7     7    20    1
     8     8    21    1
     9     9    21    1
    10    10    21    1
    11    11    24    1
    12    12    14   ar
    13    12    16   ar
    14    13    15   ar
    15    13    16   ar
    16    14    17   ar
    17    15    17   ar
    18    16    19    1
    19    17    24    1
    20    18    20    1
    21    18    22    1
    22    18    23    1
    23    19    20    1
    24    20    21    1
@<TRIPOS>SUBSTRUCTURE
     1 lig         1 TEMP              0 ****  ****    0 ROOT


########## Name:		ligand
########## HA_RMSDs:		12.5821
########## HA_RMSDh:		12.5238
########## HA_RMSDm:		10.9682
########## Cluster Size:	1
##########    Grid Score:           -7.255165
##########      Grid_vdw:           -7.107649
##########       Grid_es:           -0.147516
##########    Int_energy:            5.536587

@<TRIPOS>MOLECULE
ligand
 24 24 1 0 0
SMALL
No Charge or Current Charge


@<TRIPOS>ATOM
      1 H1         14.6612   15.4423   28.3768 H       1  lig         0.1340
      2 H2         18.1501   14.2347   30.5180 H       1  lig         0.1340
      3 H3         13.9376   16.7002   30.3371 H       1  lig         0.1475
      4 H4         17.4008   15.4622   32.5182 H       1  lig         0.1475
      5 H5         16.0515   13.8916   27.4245 H       1  lig         0.0877
      6 H6         17.6547   14.5429   27.5526 H       1  lig         0.0877
      7 H7         16.9316   12.1066   29.2172 H       1  lig         0.0966
      8 H8         19.0595   13.2736   29.5285 H       1  lig         0.4431
      9 H9         19.3587   11.7931   28.8417 H       1  lig         0.4431
     10 H10        19.3847   13.1634   27.8951 H       1  lig         0.4431
     11 H11        15.7982   16.7328   33.2812 H       1  lig         0.4214
     12 C1         15.2672   15.4332   29.2792 C.ar    1  lig        -0.0999
     13 C2         17.2087   14.7782   30.4894 C.ar    1  lig        -0.0999
     14 C3         14.8666   16.1421   30.3781 C.ar    1  lig        -0.1787
     15 C4         16.7938   15.4581   31.6185 C.ar    1  lig        -0.1787
     16 C5         16.4386   14.7419   29.3326 C.ar    1  lig        -0.1394
     17 C6         15.5847   16.1398   31.5444 C.ar    1  lig         0.1292
     18 C7         17.2225   11.6876   27.1710 C.2     1  lig         0.9321
     19 C8         16.9027   13.9721   28.1107 C.3     1  lig        -0.0452
     20 C9         17.4511   12.5698   28.3769 C.3     1  lig        -0.0740
     21 N1         18.8740   12.7006   28.6881 N.4     1  lig        -0.8252
     22 O1         16.0740   11.7051   26.7338 O.co2   1  lig        -0.7573
     23 O2         18.1211   10.9590   26.6605 O.co2   1  lig        -0.7573
     24 O3         15.1567   16.8370   32.5201 O.3     1  lig        -0.4913
@<TRIPOS>BOND
     1     1    12    1
     2     2    13    1
     3     3    14    1
     4     4    15    1
     5     5    19    1
     6     6    19    1
     7     7    20    1
     8     8    21    1
     9     9    21    1
    10    10    21    1
    11    11    24    1
    12    12    14   ar
    13    12    16   ar
    14    13    15   ar
    15    13    16   ar
    16    14    17   ar
    17    15    17   ar
    18    16    19    1
    19    17    24    1
    20    18    20    1
    21    18    22    1
    22    18    23    1
    23    19    20    1
    24    20    21    1
@<TRIPOS>SUBSTRUCTURE
     1 lig         1 TEMP              0 ****  ****    0 ROOT


########## Name:		ligand
########## HA_RMSDs:		12.3574
########## HA_RMSDh:		12.3223
########## HA_RMSDm:		9.9749
########## Cluster Size:	1
##########    Grid Score:           -7.210452
##########      Grid_vdw:           -7.864551
##########       Grid_es:            0.654099
##########    Int_energy:           14.821443

@<TRIPOS>MOLECULE
ligand
 24 24 1 0 0
SMALL
No Charge or Current Charge


@<TRIPOS>ATOM
      1 H1         16.6704   15.5754   27.2726 H       1  lig         0.1340
      2 H2         14.2467   13.3371   29.9802 H       1  lig         0.1340
      3 H3         15.5704   17.6157   28.0314 H       1  lig         0.1475
      4 H4         13.0967   15.3881   30.7151 H       1  lig         0.1475
      5 H5         15.4445   12.2699   28.0367 H       1  lig         0.0877
      6 H6         16.5854   13.1653   27.0844 H       1  lig         0.0877
      7 H7         17.7483   11.6234   28.6233 H       1  lig         0.0966
      8 H8         16.0391   11.6483   30.3739 H       1  lig         0.4431
      9 H9         17.4984   12.0600   31.0475 H       1  lig         0.4431
     10 H10        16.3783   13.2468   30.7137 H       1  lig         0.4431
     11 H11        14.3621   18.4817   29.4584 H       1  lig         0.4214
     12 C1         15.8852   15.5197   28.0223 C.ar    1  lig        -0.0999
     13 C2         14.5286   14.2927   29.5443 C.ar    1  lig        -0.0999
     14 C3         15.2705   16.6629   28.4535 C.ar    1  lig        -0.1787
     15 C4         13.8731   15.4365   29.9582 C.ar    1  lig        -0.1787
     16 C5         15.5117   14.3273   28.5621 C.ar    1  lig        -0.1394
     17 C6         14.2596   16.6387   29.3775 C.ar    1  lig         0.1292
     18 C7         18.4692   13.5670   29.0099 C.2     1  lig         0.9321
     19 C8         16.2045   13.0568   28.1071 C.3     1  lig        -0.0452
     20 C9         17.3406   12.5616   29.0026 C.3     1  lig        -0.0740
     21 N1         16.7927   12.3554   30.3427 N.4     1  lig        -0.8252
     22 O1         18.1089   14.7411   29.0593 O.co2   1  lig        -0.7573
     23 O2         19.6898   13.2448   28.9384 O.co2   1  lig        -0.7573
     24 O3         13.7462   17.7455   29.7420 O.3     1  lig        -0.4913
@<TRIPOS>BOND
     1     1    12    1
     2     2    13    1
     3     3    14    1
     4     4    15    1
     5     5    19    1
     6     6    19    1
     7     7    20    1
     8     8    21    1
     9     9    21    1
    10    10    21    1
    11    11    24    1
    12    12    14   ar
    13    12    16   ar
    14    13    15   ar
    15    13    16   ar
    16    14    17   ar
    17    15    17   ar
    18    16    19    1
    19    17    24    1
    20    18    20    1
    21    18    22    1
    22    18    23    1
    23    19    20    1
    24    20    21    1
@<TRIPOS>SUBSTRUCTURE
     1 lig         1 TEMP              0 ****  ****    0 ROOT


########## Name:		ligand
########## HA_RMSDs:		13.7625
########## HA_RMSDh:		13.7358
########## HA_RMSDm:		12.2235
########## Cluster Size:	1
##########    Grid Score:           -7.004025
##########      Grid_vdw:           -6.921838
##########       Grid_es:           -0.082187
##########    Int_energy:            2.982694

@<TRIPOS>MOLECULE
ligand
 24 24 1 0 0
SMALL
No Charge or Current Charge


@<TRIPOS>ATOM
      1 H1         17.7384   16.8131   31.3740 H       1  lig         0.1340
      2 H2         15.2863   13.3202   31.4240 H       1  lig         0.1340
      3 H3         15.7754   18.1389   30.7932 H       1  lig         0.1475
      4 H4         13.3093   14.6457   30.7886 H       1  lig         0.1475
      5 H5         18.5959   14.8325   32.2275 H       1  lig         0.0877
      6 H6         17.6108   13.4535   32.5993 H       1  lig         0.0877
      7 H7         17.8032   12.6763   30.2046 H       1  lig         0.0966
      8 H8         19.3768   11.9617   31.9366 H       1  lig         0.4431
      9 H9         20.1960   12.1140   30.5018 H       1  lig         0.4431
     10 H10        20.3276   13.3050   31.6588 H       1  lig         0.4431
     11 H11        13.6410   17.6785   29.5560 H       1  lig         0.4214
     12 C1         16.7759   16.3253   31.2426 C.ar    1  lig        -0.0999
     13 C2         15.3885   14.3922   31.2720 C.ar    1  lig        -0.0999
     14 C3         15.6724   17.0671   30.9223 C.ar    1  lig        -0.1787
     15 C4         14.2752   15.1259   30.9093 C.ar    1  lig        -0.1787
     16 C5         16.6396   14.9817   31.4128 C.ar    1  lig        -0.1394
     17 C6         14.4451   16.4927   30.7225 C.ar    1  lig         0.1292
     18 C7         18.9428   14.3286   29.5582 C.2     1  lig         0.9321
     19 C8         17.8533   14.1543   31.7913 C.3     1  lig        -0.0452
     20 C9         18.5106   13.3772   30.6503 C.3     1  lig        -0.0740
     21 N1         19.6464   12.6441   31.2082 N.4     1  lig        -0.8252
     22 O1         19.5673   15.3111   29.9525 O.co2   1  lig        -0.7573
     23 O2         18.6647   14.1594   28.3364 O.co2   1  lig        -0.7573
     24 O3         13.4607   17.2502   30.4424 O.3     1  lig        -0.4913
@<TRIPOS>BOND
     1     1    12    1
     2     2    13    1
     3     3    14    1
     4     4    15    1
     5     5    19    1
     6     6    19    1
     7     7    20    1
     8     8    21    1
     9     9    21    1
    10    10    21    1
    11    11    24    1
    12    12    14   ar
    13    12    16   ar
    14    13    15   ar
    15    13    16   ar
    16    14    17   ar
    17    15    17   ar
    18    16    19    1
    19    17    24    1
    20    18    20    1
    21    18    22    1
    22    18    23    1
    23    19    20    1
    24    20    21    1
@<TRIPOS>SUBSTRUCTURE
     1 lig         1 TEMP              0 ****  ****    0 ROOT


########## Name:		ligand
########## HA_RMSDs:		17.6713
########## HA_RMSDh:		17.6173
########## HA_RMSDm:		15.4618
########## Cluster Size:	1
##########    Grid Score:           -6.886398
##########      Grid_vdw:           -3.510040
##########       Grid_es:           -3.376358
##########    Int_energy:            5.528799

@<TRIPOS>MOLECULE
ligand
 24 24 1 0 0
SMALL
No Charge or Current Charge


@<TRIPOS>ATOM
      1 H1         25.5240    0.7913   13.5816 H       1  lig         0.1340
      2 H2         25.9118    4.3581   15.8931 H       1  lig         0.1340
      3 H3         23.1751    1.3318   13.2082 H       1  lig         0.1475
      4 H4         23.5280    4.8843   15.5616 H       1  lig         0.1475
      5 H5         27.7417    2.9854   15.6493 H       1  lig         0.0877
      6 H6         27.4375    1.2788   15.5734 H       1  lig         0.0877
      7 H7         27.8310    1.3011   13.0955 H       1  lig         0.0966
      8 H8         29.6679    0.9614   14.6757 H       1  lig         0.4431
      9 H9         30.2387    1.8093   13.3687 H       1  lig         0.4431
     10 H10        29.9038    2.6097   14.7906 H       1  lig         0.4431
     11 H11        21.5567    3.7451   14.9285 H       1  lig         0.4214
     12 C1         25.0980    1.6872   14.0260 C.ar    1  lig        -0.0999
     13 C2         25.2931    3.6845   15.3048 C.ar    1  lig        -0.0999
     14 C3         23.7825    1.9956   13.8137 C.ar    1  lig        -0.1787
     15 C4         23.9557    3.9849   15.1301 C.ar    1  lig        -0.1787
     16 C5         25.8583    2.5285   14.7790 C.ar    1  lig        -0.1394
     17 C6         23.1966    3.0998   14.3736 C.ar    1  lig         0.1292
     18 C7         28.0745    3.3900   12.9407 C.2     1  lig         0.9321
     19 C8         27.3241    2.2069   15.0001 C.3     1  lig        -0.0452
     20 C9         28.1816    2.1103   13.7378 C.3     1  lig        -0.0740
     21 N1         29.5585    1.8478   14.1548 N.4     1  lig        -0.8252
     22 O1         27.6477    4.3534   13.5734 O.co2   1  lig        -0.7573
     23 O2         28.3653    3.4724   11.7129 O.co2   1  lig        -0.7573
     24 O3         21.9708    3.3301   14.1174 O.3     1  lig        -0.4913
@<TRIPOS>BOND
     1     1    12    1
     2     2    13    1
     3     3    14    1
     4     4    15    1
     5     5    19    1
     6     6    19    1
     7     7    20    1
     8     8    21    1
     9     9    21    1
    10    10    21    1
    11    11    24    1
    12    12    14   ar
    13    12    16   ar
    14    13    15   ar
    15    13    16   ar
    16    14    17   ar
    17    15    17   ar
    18    16    19    1
    19    17    24    1
    20    18    20    1
    21    18    22    1
    22    18    23    1
    23    19    20    1
    24    20    21    1
@<TRIPOS>SUBSTRUCTURE
     1 lig         1 TEMP              0 ****  ****    0 ROOT


########## Name:		ligand
########## HA_RMSDs:		17.7191
########## HA_RMSDh:		17.7082
########## HA_RMSDm:		15.7481
########## Cluster Size:	1
##########    Grid Score:           -6.835436
##########      Grid_vdw:           -6.252108
##########       Grid_es:           -0.583328
##########    Int_energy:            5.679998

@<TRIPOS>MOLECULE
ligand
 24 24 1 0 0
SMALL
No Charge or Current Charge


@<TRIPOS>ATOM
      1 H1         27.8068    4.4206   14.2560 H       1  lig         0.1340
      2 H2         24.7283    2.1876   12.3191 H       1  lig         0.1340
      3 H3         26.7795    6.4764   13.4392 H       1  lig         0.1475
      4 H4         23.7139    4.2572   11.4491 H       1  lig         0.1475
      5 H5         27.0081    1.9625   14.9331 H       1  lig         0.0877
      6 H6         26.3186    1.0345   13.6392 H       1  lig         0.0877
      7 H7         28.5135    0.5013   13.2238 H       1  lig         0.0966
      8 H8         29.2510    1.7072   15.2210 H       1  lig         0.4431
      9 H9         30.3277    2.0003   13.9930 H       1  lig         0.4431
     10 H10        29.1970    3.1558   14.3937 H       1  lig         0.4431
     11 H11        23.7960    6.4537   11.6877 H       1  lig         0.4214
     12 C1         26.9144    4.3705   13.6372 C.ar    1  lig        -0.0999
     13 C2         25.1842    3.1461   12.5557 C.ar    1  lig        -0.0999
     14 C3         26.3332    5.5220   13.1823 C.ar    1  lig        -0.1787
     15 C4         24.6116    4.3008   12.0575 C.ar    1  lig        -0.1787
     16 C5         26.3451    3.1755   13.3198 C.ar    1  lig        -0.1394
     17 C6         25.2234    5.5065   12.3797 C.ar    1  lig         0.1292
     18 C7         28.5586    2.1755   11.9424 C.2     1  lig         0.9321
     19 C8         26.9692    1.8944   13.8396 C.3     1  lig        -0.0452
     20 C9         28.3717    1.5789   13.3186 C.3     1  lig        -0.0740
     21 N1         29.3343    2.1207   14.2770 N.4     1  lig        -0.8252
     22 O1         27.6564    1.9217   11.1473 O.co2   1  lig        -0.7573
     23 O2         29.5711    2.8560   11.6097 O.co2   1  lig        -0.7573
     24 O3         24.7293    6.6198   12.0086 O.3     1  lig        -0.4913
@<TRIPOS>BOND
     1     1    12    1
     2     2    13    1
     3     3    14    1
     4     4    15    1
     5     5    19    1
     6     6    19    1
     7     7    20    1
     8     8    21    1
     9     9    21    1
    10    10    21    1
    11    11    24    1
    12    12    14   ar
    13    12    16   ar
    14    13    15   ar
    15    13    16   ar
    16    14    17   ar
    17    15    17   ar
    18    16    19    1
    19    17    24    1
    20    18    20    1
    21    18    22    1
    22    18    23    1
    23    19    20    1
    24    20    21    1
@<TRIPOS>SUBSTRUCTURE
     1 lig         1 TEMP              0 ****  ****    0 ROOT


########## Name:		ligand
########## HA_RMSDs:		14.3210
########## HA_RMSDh:		14.2371
########## HA_RMSDm:		12.5257
########## Cluster Size:	1
##########    Grid Score:           -6.747261
##########      Grid_vdw:           -8.262384
##########       Grid_es:            1.515124
##########    Int_energy:            5.460392

@<TRIPOS>MOLECULE
ligand
 24 24 1 0 0
SMALL
No Charge or Current Charge


@<TRIPOS>ATOM
      1 H1         18.2463   17.2407   31.5117 H       1  lig         0.1340
      2 H2         15.6383   13.8837   31.8925 H       1  lig         0.1340
      3 H3         20.0607   15.8885   32.4219 H       1  lig         0.1475
      4 H4         17.4537   12.5275   32.8589 H       1  lig         0.1475
      5 H5         14.7504   16.0348   31.4085 H       1  lig         0.0877
      6 H6         15.6877   17.4907   31.5211 H       1  lig         0.0877
      7 H7         16.5581   17.1599   29.2123 H       1  lig         0.0966
      8 H8         14.4190   18.2892   29.5809 H       1  lig         0.4431
      9 H9         14.3339   17.4362   28.1603 H       1  lig         0.4431
     10 H10        13.6138   16.8280   29.5336 H       1  lig         0.4431
     11 H11        20.6977   14.0617   33.0310 H       1  lig         0.4214
     12 C1         18.0578   16.2121   31.8086 C.ar    1  lig        -0.0999
     13 C2         16.6235   14.3254   32.0229 C.ar    1  lig        -0.0999
     14 C3         19.0747   15.4499   32.3142 C.ar    1  lig        -0.1787
     15 C4         17.6334   13.5587   32.5719 C.ar    1  lig        -0.1787
     16 C5         16.8244   15.6540   31.6666 C.ar    1  lig        -0.1394
     17 C6         18.8782   14.1579   32.7244 C.ar    1  lig         0.1292
     18 C7         15.7326   15.2405   28.9271 C.2     1  lig         0.9321
     19 C8         15.6963   16.4845   31.0847 C.3     1  lig        -0.0452
     20 C9         15.6817   16.6117   29.5610 C.3     1  lig        -0.0740
     21 N1         14.4666   17.3344   29.1870 N.4     1  lig        -0.8252
     22 O1         15.1160   14.3704   29.5382 O.co2   1  lig        -0.7573
     23 O2         16.3796   14.9847   27.8713 O.co2   1  lig        -0.7573
     24 O3         19.8771   13.5058   33.1698 O.3     1  lig        -0.4913
@<TRIPOS>BOND
     1     1    12    1
     2     2    13    1
     3     3    14    1
     4     4    15    1
     5     5    19    1
     6     6    19    1
     7     7    20    1
     8     8    21    1
     9     9    21    1
    10    10    21    1
    11    11    24    1
    12    12    14   ar
    13    12    16   ar
    14    13    15   ar
    15    13    16   ar
    16    14    17   ar
    17    15    17   ar
    18    16    19    1
    19    17    24    1
    20    18    20    1
    21    18    22    1
    22    18    23    1
    23    19    20    1
    24    20    21    1
@<TRIPOS>SUBSTRUCTURE
     1 lig         1 TEMP              0 ****  ****    0 ROOT


########## Name:		ligand
########## HA_RMSDs:		13.3969
########## HA_RMSDh:		13.3264
########## HA_RMSDm:		9.8123
########## Cluster Size:	1
##########    Grid Score:           -6.612138
##########      Grid_vdw:           -7.306072
##########       Grid_es:            0.693934
##########    Int_energy:           11.190199

@<TRIPOS>MOLECULE
ligand
 24 24 1 0 0
SMALL
No Charge or Current Charge


@<TRIPOS>ATOM
      1 H1         16.1565   13.8551   29.2453 H       1  lig         0.1340
      2 H2         17.3279   17.3931   31.3253 H       1  lig         0.1340
      3 H3         16.4785   15.0331   27.1341 H       1  lig         0.1475
      4 H4         17.6070   18.6039   29.1981 H       1  lig         0.1475
      5 H5         15.9290   15.4695   32.3945 H       1  lig         0.0877
      6 H6         15.9006   13.9282   31.5980 H       1  lig         0.0877
      7 H7         17.5884   14.0860   33.4689 H       1  lig         0.0966
      8 H8         18.2520   16.3985   33.0235 H       1  lig         0.4431
      9 H9         19.5982   15.4321   32.9409 H       1  lig         0.4431
     10 H10        18.8715   15.9583   31.5375 H       1  lig         0.4431
     11 H11        17.4678   18.3711   27.0321 H       1  lig         0.4214
     12 C1         16.4683   14.8965   29.2492 C.ar    1  lig        -0.0999
     13 C2         17.1314   16.8779   30.3879 C.ar    1  lig        -0.0999
     14 C3         16.6549   15.5579   28.0667 C.ar    1  lig        -0.1787
     15 C4         17.2844   17.5676   29.2004 C.ar    1  lig        -0.1787
     16 C5         16.6999   15.5568   30.4167 C.ar    1  lig        -0.1394
     17 C6         17.0227   16.8766   28.0231 C.ar    1  lig         0.1292
     18 C7         18.4718   13.2788   31.7325 C.2     1  lig         0.9321
     19 C8         16.5185   14.8243   31.7326 C.3     1  lig        -0.0452
     20 C9         17.8058   14.4270   32.4556 C.3     1  lig        -0.0740
     21 N1         18.6691   15.6062   32.5065 N.4     1  lig        -0.8252
     22 O1         18.2182   13.2136   30.5317 O.co2   1  lig        -0.7573
     23 O2         19.2073   12.4261   32.3077 O.co2   1  lig        -0.7573
     24 O3         17.1928   17.4202   26.8843 O.3     1  lig        -0.4913
@<TRIPOS>BOND
     1     1    12    1
     2     2    13    1
     3     3    14    1
     4     4    15    1
     5     5    19    1
     6     6    19    1
     7     7    20    1
     8     8    21    1
     9     9    21    1
    10    10    21    1
    11    11    24    1
    12    12    14   ar
    13    12    16   ar
    14    13    15   ar
    15    13    16   ar
    16    14    17   ar
    17    15    17   ar
    18    16    19    1
    19    17    24    1
    20    18    20    1
    21    18    22    1
    22    18    23    1
    23    19    20    1
    24    20    21    1
@<TRIPOS>SUBSTRUCTURE
     1 lig         1 TEMP              0 ****  ****    0 ROOT


########## Name:		ligand
########## HA_RMSDs:		13.6946
########## HA_RMSDh:		13.6266
########## HA_RMSDm:		10.7484
########## Cluster Size:	1
##########    Grid Score:           -6.091649
##########      Grid_vdw:           -7.184104
##########       Grid_es:            1.092455
##########    Int_energy:           15.939680

@<TRIPOS>MOLECULE
ligand
 24 24 1 0 0
SMALL
No Charge or Current Charge


@<TRIPOS>ATOM
      1 H1         12.9730   11.8706   30.1878 H       1  lig         0.1340
      2 H2         14.6994   14.7419   27.5438 H       1  lig         0.1340
      3 H3         13.2350   10.1726   28.4567 H       1  lig         0.1475
      4 H4         14.9211   13.0433   25.7734 H       1  lig         0.1475
      5 H5         13.1920   15.3553   29.5874 H       1  lig         0.0877
      6 H6         12.9389   14.1522   30.8117 H       1  lig         0.0877
      7 H7         14.7471   15.6359   31.5141 H       1  lig         0.0966
      8 H8         15.4159   16.3271   29.2643 H       1  lig         0.4431
      9 H9         16.7555   15.7755   30.0731 H       1  lig         0.4431
     10 H10        16.0102   14.7999   28.9474 H       1  lig         0.4431
     11 H11        14.4247   10.9549   25.2870 H       1  lig         0.4214
     12 C1         13.3952   12.1420   29.2236 C.ar    1  lig        -0.0999
     13 C2         14.3668   13.7245   27.7355 C.ar    1  lig        -0.0999
     14 C3         13.5483   11.1907   28.2529 C.ar    1  lig        -0.1787
     15 C4         14.4892   12.7805   26.7339 C.ar    1  lig        -0.1787
     16 C5         13.7986   13.4163   28.9661 C.ar    1  lig        -0.1394
     17 C6         14.0520   11.4915   27.0152 C.ar    1  lig         0.1292
     18 C7         15.5995   13.7104   31.4013 C.2     1  lig         0.9321
     19 C8         13.6545   14.4729   30.0449 C.3     1  lig        -0.0452
     20 C9         14.9507   14.9012   30.7337 C.3     1  lig        -0.0740
     21 N1         15.8209   15.4902   29.7166 N.4     1  lig        -0.8252
     22 O1         15.4049   12.6369   30.8353 O.co2   1  lig        -0.7573
     23 O2         16.2646   13.7897   32.4737 O.co2   1  lig        -0.7573
     24 O3         14.1798   10.5491   26.1685 O.3     1  lig        -0.4913
@<TRIPOS>BOND
     1     1    12    1
     2     2    13    1
     3     3    14    1
     4     4    15    1
     5     5    19    1
     6     6    19    1
     7     7    20    1
     8     8    21    1
     9     9    21    1
    10    10    21    1
    11    11    24    1
    12    12    14   ar
    13    12    16   ar
    14    13    15   ar
    15    13    16   ar
    16    14    17   ar
    17    15    17   ar
    18    16    19    1
    19    17    24    1
    20    18    20    1
    21    18    22    1
    22    18    23    1
    23    19    20    1
    24    20    21    1
@<TRIPOS>SUBSTRUCTURE
     1 lig         1 TEMP              0 ****  ****    0 ROOT


########## Name:		ligand
########## HA_RMSDs:		16.8573
########## HA_RMSDh:		16.7944
########## HA_RMSDm:		14.4067
########## Cluster Size:	1
##########    Grid Score:           -5.766916
##########      Grid_vdw:           -7.966897
##########       Grid_es:            2.199981
##########    Int_energy:            5.753302

@<TRIPOS>MOLECULE
ligand
 24 24 1 0 0
SMALL
No Charge or Current Charge


@<TRIPOS>ATOM
      1 H1         25.6695    4.9427   11.6654 H       1  lig         0.1340
      2 H2         28.1834    2.6005   14.1971 H       1  lig         0.1340
      3 H3         26.4396    6.9495   12.8180 H       1  lig         0.1475
      4 H4         28.9276    4.6183   15.3986 H       1  lig         0.1475
      5 H5         26.8157    2.4245   11.1357 H       1  lig         0.0877
      6 H6         26.8372    1.4975   12.6023 H       1  lig         0.0877
      7 H7         24.6257    1.1465   12.1140 H       1  lig         0.0966
      8 H8         24.8810    2.2633    9.9520 H       1  lig         0.4431
      9 H9         23.4236    2.7042   10.6112 H       1  lig         0.4431
     10 H10        24.7129    3.7567   10.6782 H       1  lig         0.4431
     11 H11        28.9397    6.8470   15.1780 H       1  lig         0.4214
     12 C1         26.3782    4.8571   12.4852 C.ar    1  lig        -0.0999
     13 C2         27.7926    3.5717   13.9028 C.ar    1  lig        -0.0999
     14 C3         26.8159    5.9813   13.1297 C.ar    1  lig        -0.1787
     15 C4         28.2110    4.6968   14.5872 C.ar    1  lig        -0.1787
     16 C5         26.8607    3.6452   12.8740 C.ar    1  lig        -0.1394
     17 C6         27.6886    5.9200   14.1836 C.ar    1  lig         0.1292
     18 C7         24.2000    2.9006   13.2043 C.2     1  lig         0.9321
     19 C8         26.3990    2.3951   12.1493 C.3     1  lig        -0.0452
     20 C9         24.8851    2.2043   12.0508 C.3     1  lig        -0.0740
     21 N1         24.4522    2.7423   10.7617 N.4     1  lig        -0.8252
     22 O1         24.2988    2.3213   14.2838 O.co2   1  lig        -0.7573
     23 O2         23.5461    3.9756   13.0799 O.co2   1  lig        -0.7573
     24 O3         28.0633    7.0107   14.7233 O.3     1  lig        -0.4913
@<TRIPOS>BOND
     1     1    12    1
     2     2    13    1
     3     3    14    1
     4     4    15    1
     5     5    19    1
     6     6    19    1
     7     7    20    1
     8     8    21    1
     9     9    21    1
    10    10    21    1
    11    11    24    1
    12    12    14   ar
    13    12    16   ar
    14    13    15   ar
    15    13    16   ar
    16    14    17   ar
    17    15    17   ar
    18    16    19    1
    19    17    24    1
    20    18    20    1
    21    18    22    1
    22    18    23    1
    23    19    20    1
    24    20    21    1
@<TRIPOS>SUBSTRUCTURE
     1 lig         1 TEMP              0 ****  ****    0 ROOT


########## Name:		ligand
########## HA_RMSDs:		17.1466
########## HA_RMSDh:		17.0918
########## HA_RMSDm:		14.9121
########## Cluster Size:	1
##########    Grid Score:           -5.681283
##########      Grid_vdw:           -5.082293
##########       Grid_es:           -0.598991
##########    Int_energy:            8.099318

@<TRIPOS>MOLECULE
ligand
 24 24 1 0 0
SMALL
No Charge or Current Charge


@<TRIPOS>ATOM
      1 H1          8.4505    6.0608   22.9914 H       1  lig         0.1340
      2 H2          7.0227    5.5338   26.9787 H       1  lig         0.1340
      3 H3          6.3073    5.2505   22.1554 H       1  lig         0.1475
      4 H4          4.8738    4.6674   26.1415 H       1  lig         0.1475
      5 H5          9.4910    5.7208   26.4153 H       1  lig         0.0877
      6 H6         10.0015    6.1942   24.8260 H       1  lig         0.0877
      7 H7         10.1472    8.0499   26.5163 H       1  lig         0.0966
      8 H8          8.1352    7.4281   27.7620 H       1  lig         0.4431
      9 H9          7.9736    8.9930   27.2347 H       1  lig         0.4431
     10 H10         7.1816    7.7655   26.4343 H       1  lig         0.4431
     11 H11         4.1791    5.0721   22.7725 H       1  lig         0.4214
     12 C1          7.6782    5.7530   23.6918 C.ar    1  lig        -0.0999
     13 C2          6.8588    5.4583   25.9063 C.ar    1  lig        -0.0999
     14 C3          6.4735    5.3034   23.2258 C.ar    1  lig        -0.1787
     15 C4          5.6528    4.9649   25.4466 C.ar    1  lig        -0.1787
     16 C5          7.8785    5.8263   25.0361 C.ar    1  lig        -0.1394
     17 C6          5.4807    4.8817   24.0699 C.ar    1  lig         0.1292
     18 C7          9.1276    8.7143   24.7941 C.2     1  lig         0.9321
     19 C8          9.2029    6.3461   25.5622 C.3     1  lig        -0.0452
     20 C9          9.2151    7.8104   26.0024 C.3     1  lig        -0.0740
     21 N1          8.0859    8.0112   26.9097 N.4     1  lig        -0.8252
     22 O1          9.4080    8.1721   23.7274 O.co2   1  lig        -0.7573
     23 O2          8.8237    9.9399   24.8615 O.co2   1  lig        -0.7573
     24 O3          4.3800    4.4914   23.5624 O.3     1  lig        -0.4913
@<TRIPOS>BOND
     1     1    12    1
     2     2    13    1
     3     3    14    1
     4     4    15    1
     5     5    19    1
     6     6    19    1
     7     7    20    1
     8     8    21    1
     9     9    21    1
    10    10    21    1
    11    11    24    1
    12    12    14   ar
    13    12    16   ar
    14    13    15   ar
    15    13    16   ar
    16    14    17   ar
    17    15    17   ar
    18    16    19    1
    19    17    24    1
    20    18    20    1
    21    18    22    1
    22    18    23    1
    23    19    20    1
    24    20    21    1
@<TRIPOS>SUBSTRUCTURE
     1 lig         1 TEMP              0 ****  ****    0 ROOT


########## Name:		ligand
########## HA_RMSDs:		16.0785
########## HA_RMSDh:		16.0010
########## HA_RMSDm:		14.3931
########## Cluster Size:	1
##########    Grid Score:           -5.656941
##########      Grid_vdw:           -6.061931
##########       Grid_es:            0.404990
##########    Int_energy:            3.705529

@<TRIPOS>MOLECULE
ligand
 24 24 1 0 0
SMALL
No Charge or Current Charge


@<TRIPOS>ATOM
      1 H1          9.2013    5.0580   22.3774 H       1  lig         0.1340
      2 H2          8.2428    6.0036   26.4275 H       1  lig         0.1340
      3 H3          7.0995    6.0797   21.6794 H       1  lig         0.1475
      4 H4          6.0955    6.9924   25.7344 H       1  lig         0.1475
      5 H5         10.0982    4.6542   25.9665 H       1  lig         0.0877
      6 H6         10.2815    3.8292   24.4512 H       1  lig         0.0877
      7 H7         11.8973    5.2969   23.6797 H       1  lig         0.0966
      8 H8         12.6172    4.5252   25.8872 H       1  lig         0.4431
      9 H9         13.1914    6.0632   25.6465 H       1  lig         0.4431
     10 H10        11.8567    5.8215   26.6132 H       1  lig         0.4431
     11 H11         5.6112    7.5734   22.3464 H       1  lig         0.4214
     12 C1          8.5275    5.4722   23.1231 C.ar    1  lig        -0.0999
     13 C2          7.9762    6.0158   25.3733 C.ar    1  lig        -0.0999
     14 C3          7.3508    6.0506   22.7340 C.ar    1  lig        -0.1787
     15 C4          6.7666    6.5666   24.9952 C.ar    1  lig        -0.1787
     16 C5          8.8426    5.4466   24.4471 C.ar    1  lig        -0.1394
     17 C6          6.4598    6.5628   23.6396 C.ar    1  lig         0.1292
     18 C7         11.0374    7.0981   24.3601 C.2     1  lig         0.9321
     19 C8         10.1564    4.8284   24.8858 C.3     1  lig        -0.0452
     20 C9         11.4105    5.6514   24.5894 C.3     1  lig        -0.0740
     21 N1         12.3191    5.5019   25.7255 N.4     1  lig        -0.8252
     22 O1         10.9309    7.7683   25.3849 O.co2   1  lig        -0.7573
     23 O2         10.8170    7.5878   23.2154 O.co2   1  lig        -0.7573
     24 O3          5.3922    7.1001   23.2007 O.3     1  lig        -0.4913
@<TRIPOS>BOND
     1     1    12    1
     2     2    13    1
     3     3    14    1
     4     4    15    1
     5     5    19    1
     6     6    19    1
     7     7    20    1
     8     8    21    1
     9     9    21    1
    10    10    21    1
    11    11    24    1
    12    12    14   ar
    13    12    16   ar
    14    13    15   ar
    15    13    16   ar
    16    14    17   ar
    17    15    17   ar
    18    16    19    1
    19    17    24    1
    20    18    20    1
    21    18    22    1
    22    18    23    1
    23    19    20    1
    24    20    21    1
@<TRIPOS>SUBSTRUCTURE
     1 lig         1 TEMP              0 ****  ****    0 ROOT


########## Name:		ligand
########## HA_RMSDs:		14.4769
########## HA_RMSDh:		14.4545
########## HA_RMSDm:		12.3274
########## Cluster Size:	1
##########    Grid Score:           -5.401358
##########      Grid_vdw:           -7.943690
##########       Grid_es:            2.542332
##########    Int_energy:           50.927677

@<TRIPOS>MOLECULE
ligand
 24 24 1 0 0
SMALL
No Charge or Current Charge


@<TRIPOS>ATOM
      1 H1         15.6854   13.2789   32.1403 H       1  lig         0.1340
      2 H2         13.3875   16.1529   29.9781 H       1  lig         0.1340
      3 H3         15.6771   14.7750   34.0666 H       1  lig         0.1475
      4 H4         13.4178   17.6901   31.9030 H       1  lig         0.1475
      5 H5         15.5050   13.8039   29.2208 H       1  lig         0.0877
      6 H6         14.5172   12.6507   30.0604 H       1  lig         0.0877
      7 H7         13.4691   13.1927   27.9216 H       1  lig         0.0966
      8 H8         14.4772   15.4094   27.6831 H       1  lig         0.4431
      9 H9         12.8331   15.5498   27.5096 H       1  lig         0.4431
     10 H10        13.5529   15.9904   28.9457 H       1  lig         0.4431
     11 H11        14.1403   17.8983   33.9529 H       1  lig         0.4214
     12 C1         15.1906   14.2445   32.0730 C.ar    1  lig        -0.0999
     13 C2         13.9034   15.8580   30.8889 C.ar    1  lig        -0.0999
     14 C3         15.1798   15.0831   33.1534 C.ar    1  lig        -0.1787
     15 C4         13.9204   16.7299   31.9607 C.ar    1  lig        -0.1787
     16 C5         14.5570   14.6318   30.9323 C.ar    1  lig        -0.1394
     17 C6         14.5908   16.3188   33.1068 C.ar    1  lig         0.1292
     18 C7         12.0761   13.7567   29.4010 C.2     1  lig         0.9321
     19 C8         14.5435   13.6983   29.7368 C.3     1  lig        -0.0452
     20 C9         13.4183   13.9269   28.7270 C.3     1  lig        -0.0740
     21 N1         13.5800   15.2729   28.1785 N.4     1  lig        -0.8252
     22 O1         12.0616   14.0491   30.5947 O.co2   1  lig        -0.7573
     23 O2         11.0490   13.3190   28.8074 O.co2   1  lig        -0.7573
     24 O3         14.6072   17.0371   34.1580 O.3     1  lig        -0.4913
@<TRIPOS>BOND
     1     1    12    1
     2     2    13    1
     3     3    14    1
     4     4    15    1
     5     5    19    1
     6     6    19    1
     7     7    20    1
     8     8    21    1
     9     9    21    1
    10    10    21    1
    11    11    24    1
    12    12    14   ar
    13    12    16   ar
    14    13    15   ar
    15    13    16   ar
    16    14    17   ar
    17    15    17   ar
    18    16    19    1
    19    17    24    1
    20    18    20    1
    21    18    22    1
    22    18    23    1
    23    19    20    1
    24    20    21    1
@<TRIPOS>SUBSTRUCTURE
     1 lig         1 TEMP              0 ****  ****    0 ROOT


########## Name:		ligand
########## HA_RMSDs:		12.7521
########## HA_RMSDh:		12.7228
########## HA_RMSDm:		10.9586
########## Cluster Size:	1
##########    Grid Score:           -5.401275
##########      Grid_vdw:           -5.968544
##########       Grid_es:            0.567269
##########    Int_energy:           10.228451

@<TRIPOS>MOLECULE
ligand
 24 24 1 0 0
SMALL
No Charge or Current Charge


@<TRIPOS>ATOM
      1 H1         15.3768   14.5368   30.4221 H       1  lig         0.1340
      2 H2         19.1702   15.8439   28.9672 H       1  lig         0.1340
      3 H3         16.2168   14.7538   32.7016 H       1  lig         0.1475
      4 H4         20.0409   16.0174   31.2652 H       1  lig         0.1475
      5 H5         15.7688   15.6056   28.0752 H       1  lig         0.0877
      6 H6         17.3774   15.5426   27.4280 H       1  lig         0.0877
      7 H7         15.7280   13.6212   26.8139 H       1  lig         0.0966
      8 H8         15.0237   13.2093   29.1206 H       1  lig         0.4431
      9 H9         15.7496   11.8384   28.5317 H       1  lig         0.4431
     10 H10        16.5924   12.8438   29.5581 H       1  lig         0.4431
     11 H11        19.5226   15.3736   33.3853 H       1  lig         0.4214
     12 C1         16.4018   14.8559   30.5926 C.ar    1  lig        -0.0999
     13 C2         18.5223   15.5937   29.8040 C.ar    1  lig        -0.0999
     14 C3         16.8738   14.9837   31.8700 C.ar    1  lig        -0.1787
     15 C4         19.0220   15.6878   31.0888 C.ar    1  lig        -0.1787
     16 C5         17.2275   15.1547   29.5525 C.ar    1  lig        -0.1394
     17 C6         18.1649   15.3583   32.1323 C.ar    1  lig         0.1292
     18 C7         17.7286   13.0178   27.0971 C.2     1  lig         0.9321
     19 C8         16.7053   15.0387   28.1331 C.3     1  lig        -0.0452
     20 C9         16.4484   13.6167   27.6331 C.3     1  lig        -0.0740
     21 N1         15.9171   12.8409   28.7531 N.4     1  lig        -0.8252
     22 O1         18.7549   13.5721   27.4844 O.co2   1  lig        -0.7573
     23 O2         17.7580   12.0457   26.2891 O.co2   1  lig        -0.7573
     24 O3         18.5273   15.4711   33.3477 O.3     1  lig        -0.4913
@<TRIPOS>BOND
     1     1    12    1
     2     2    13    1
     3     3    14    1
     4     4    15    1
     5     5    19    1
     6     6    19    1
     7     7    20    1
     8     8    21    1
     9     9    21    1
    10    10    21    1
    11    11    24    1
    12    12    14   ar
    13    12    16   ar
    14    13    15   ar
    15    13    16   ar
    16    14    17   ar
    17    15    17   ar
    18    16    19    1
    19    17    24    1
    20    18    20    1
    21    18    22    1
    22    18    23    1
    23    19    20    1
    24    20    21    1
@<TRIPOS>SUBSTRUCTURE
     1 lig         1 TEMP              0 ****  ****    0 ROOT


########## Name:		ligand
########## HA_RMSDs:		15.6803
########## HA_RMSDh:		15.6650
########## HA_RMSDm:		13.7034
########## Cluster Size:	1
##########    Grid Score:           -4.764259
##########      Grid_vdw:            2.410725
##########       Grid_es:           -7.174984
##########    Int_energy:           10.698839

@<TRIPOS>MOLECULE
ligand
 24 24 1 0 0
SMALL
No Charge or Current Charge


@<TRIPOS>ATOM
      1 H1         25.1635    2.1311   15.4722 H       1  lig         0.1340
      2 H2         22.6458    5.3830   14.3312 H       1  lig         0.1340
      3 H3         27.0965    3.6051   15.2729 H       1  lig         0.1475
      4 H4         24.5985    6.8639   14.0796 H       1  lig         0.1475
      5 H5         22.9378    1.7664   15.3526 H       1  lig         0.0877
      6 H6         21.9304    3.0892   15.8486 H       1  lig         0.0877
      7 H7         22.2826    2.0272   13.0087 H       1  lig         0.0966
      8 H8         22.2224    4.4732   13.0171 H       1  lig         0.4431
      9 H9         20.7744    3.9061   12.4387 H       1  lig         0.4431
     10 H10        20.8782    4.4592   14.0065 H       1  lig         0.4431
     11 H11        27.7269    5.6015   15.1787 H       1  lig         0.4214
     12 C1         25.0266    3.1634   15.1603 C.ar    1  lig        -0.0999
     13 C2         23.6411    4.9925   14.5295 C.ar    1  lig        -0.0999
     14 C3         26.1082    3.9937   15.0530 C.ar    1  lig        -0.1787
     15 C4         24.7306    5.8290   14.3791 C.ar    1  lig        -0.1787
     16 C5         23.7872    3.6585   14.8923 C.ar    1  lig        -0.1394
     17 C6         25.9866    5.2939   14.6398 C.ar    1  lig         0.1292
     18 C7         20.4911    1.7721   14.0914 C.2     1  lig         0.9321
     19 C8         22.5794    2.7515   15.0316 C.3     1  lig        -0.0452
     20 C9         21.7301    2.5769   13.7722 C.3     1  lig        -0.0740
     21 N1         21.3942    3.9102   13.2741 N.4     1  lig        -0.8252
     22 O1         20.6213    0.5571   13.9593 O.co2   1  lig        -0.7573
     23 O2         19.3918    2.2930   14.4363 O.co2   1  lig        -0.7573
     24 O3         27.0373    6.0106   14.5797 O.3     1  lig        -0.4913
@<TRIPOS>BOND
     1     1    12    1
     2     2    13    1
     3     3    14    1
     4     4    15    1
     5     5    19    1
     6     6    19    1
     7     7    20    1
     8     8    21    1
     9     9    21    1
    10    10    21    1
    11    11    24    1
    12    12    14   ar
    13    12    16   ar
    14    13    15   ar
    15    13    16   ar
    16    14    17   ar
    17    15    17   ar
    18    16    19    1
    19    17    24    1
    20    18    20    1
    21    18    22    1
    22    18    23    1
    23    19    20    1
    24    20    21    1
@<TRIPOS>SUBSTRUCTURE
     1 lig         1 TEMP              0 ****  ****    0 ROOT


########## Name:		ligand
########## HA_RMSDs:		17.6463
########## HA_RMSDh:		17.6189
########## HA_RMSDm:		16.1429
########## Cluster Size:	1
##########    Grid Score:           -4.089983
##########      Grid_vdw:           -3.437226
##########       Grid_es:           -0.652757
##########    Int_energy:            5.166712

@<TRIPOS>MOLECULE
ligand
 24 24 1 0 0
SMALL
No Charge or Current Charge


@<TRIPOS>ATOM
      1 H1          9.8966    4.4385   24.3481 H       1  lig         0.1340
      2 H2          6.2185    5.0311   26.4305 H       1  lig         0.1340
      3 H3          9.3362    6.3174   22.8975 H       1  lig         0.1475
      4 H4          5.6232    6.8979   24.9372 H       1  lig         0.1475
      5 H5          7.5223    2.8585   26.5393 H       1  lig         0.0877
      6 H6          9.1272    2.7549   25.8880 H       1  lig         0.0877
      7 H7          9.2392    2.9384   28.3300 H       1  lig         0.0966
      8 H8          7.1219    4.1327   28.6080 H       1  lig         0.4431
      9 H9          8.3219    4.9907   29.3676 H       1  lig         0.4431
     10 H10         7.7655    5.4892   27.8788 H       1  lig         0.4431
     11 H11         6.6201    8.3159   23.4793 H       1  lig         0.4214
     12 C1          8.9549    4.9644   24.4838 C.ar    1  lig        -0.0999
     13 C2          6.9026    5.3176   25.6352 C.ar    1  lig        -0.0999
     14 C3          8.6406    6.0218   23.6753 C.ar    1  lig        -0.1787
     15 C4          6.5567    6.3617   24.7987 C.ar    1  lig        -0.1787
     16 C5          8.0828    4.6033   25.4645 C.ar    1  lig        -0.1394
     17 C6          7.4553    6.6980   23.7931 C.ar    1  lig         0.1292
     18 C7         10.3075    4.5864   27.5622 C.2     1  lig         0.9321
     19 C8          8.4338    3.4468   26.3812 C.3     1  lig        -0.0452
     20 C9          9.0116    3.8301   27.7441 C.3     1  lig        -0.0740
     21 N1          8.0096    4.6357   28.4409 N.4     1  lig        -0.8252
     22 O1         10.1742    5.7459   27.1769 O.co2   1  lig        -0.7573
     23 O2         11.4468    4.0729   27.7550 O.co2   1  lig        -0.7573
     24 O3          7.2401    7.6824   23.0146 O.3     1  lig        -0.4913
@<TRIPOS>BOND
     1     1    12    1
     2     2    13    1
     3     3    14    1
     4     4    15    1
     5     5    19    1
     6     6    19    1
     7     7    20    1
     8     8    21    1
     9     9    21    1
    10    10    21    1
    11    11    24    1
    12    12    14   ar
    13    12    16   ar
    14    13    15   ar
    15    13    16   ar
    16    14    17   ar
    17    15    17   ar
    18    16    19    1
    19    17    24    1
    20    18    20    1
    21    18    22    1
    22    18    23    1
    23    19    20    1
    24    20    21    1
@<TRIPOS>SUBSTRUCTURE
     1 lig         1 TEMP              0 ****  ****    0 ROOT


########## Name:		ligand
########## HA_RMSDs:		15.1837
########## HA_RMSDh:		15.1594
########## HA_RMSDm:		13.4938
########## Cluster Size:	1
##########    Grid Score:           -2.908098
##########      Grid_vdw:           -2.593523
##########       Grid_es:           -0.314575
##########    Int_energy:            4.663973

@<TRIPOS>MOLECULE
ligand
 24 24 1 0 0
SMALL
No Charge or Current Charge


@<TRIPOS>ATOM
      1 H1         17.2288    9.2260   32.1770 H       1  lig         0.1340
      2 H2         16.0078    9.9192   28.1466 H       1  lig         0.1340
      3 H3         14.8937    9.3576   32.8689 H       1  lig         0.1475
      4 H4         13.6526   10.1031   28.8455 H       1  lig         0.1475
      5 H5         18.7932    9.0969   30.5289 H       1  lig         0.0877
      6 H6         18.3330    8.7355   28.8954 H       1  lig         0.0877
      7 H7         18.9286   10.8179   28.1257 H       1  lig         0.0966
      8 H8         20.8141   10.0900   29.5048 H       1  lig         0.4431
      9 H9         20.7078   11.7443   29.5771 H       1  lig         0.4431
     10 H10        20.1452   10.8239   30.8464 H       1  lig         0.4431
     11 H11        12.7225    8.8962   31.7334 H       1  lig         0.4214
     12 C1         16.4563    9.4247   31.4385 C.ar    1  lig        -0.0999
     13 C2         15.7522    9.8052   29.1974 C.ar    1  lig        -0.0999
     14 C3         15.1455    9.4937   31.8229 C.ar    1  lig        -0.1787
     15 C4         14.4292    9.9166   29.5804 C.ar    1  lig        -0.1787
     16 C5         16.7662    9.5869   30.1230 C.ar    1  lig        -0.1394
     17 C6         14.1416    9.7665   30.9319 C.ar    1  lig         0.1292
     18 C7         18.0037   11.9699   29.6305 C.2     1  lig         0.9321
     19 C8         18.2148    9.4886   29.6839 C.3     1  lig        -0.0452
     20 C9         18.8574   10.7941   29.2141 C.3     1  lig        -0.0740
     21 N1         20.1964   10.8657   29.7977 N.4     1  lig        -0.8252
     22 O1         18.2634   12.4228   30.7432 O.co2   1  lig        -0.7573
     23 O2         17.0717   12.4412   28.9178 O.co2   1  lig        -0.7573
     24 O3         12.9434    9.7987   31.3616 O.3     1  lig        -0.4913
@<TRIPOS>BOND
     1     1    12    1
     2     2    13    1
     3     3    14    1
     4     4    15    1
     5     5    19    1
     6     6    19    1
     7     7    20    1
     8     8    21    1
     9     9    21    1
    10    10    21    1
    11    11    24    1
    12    12    14   ar
    13    12    16   ar
    14    13    15   ar
    15    13    16   ar
    16    14    17   ar
    17    15    17   ar
    18    16    19    1
    19    17    24    1
    20    18    20    1
    21    18    22    1
    22    18    23    1
    23    19    20    1
    24    20    21    1
@<TRIPOS>SUBSTRUCTURE
     1 lig         1 TEMP              0 ****  ****    0 ROOT


########## Name:		ligand
########## HA_RMSDs:		12.8642
########## HA_RMSDh:		12.7686
########## HA_RMSDm:		10.9488
########## Cluster Size:	1
##########    Grid Score:           -2.193730
##########      Grid_vdw:           -2.487208
##########       Grid_es:            0.293478
##########    Int_energy:            1.572866

@<TRIPOS>MOLECULE
ligand
 24 24 1 0 0
SMALL
No Charge or Current Charge


@<TRIPOS>ATOM
      1 H1         12.8866   16.0186   28.8916 H       1  lig         0.1340
      2 H2         15.9700   13.9064   30.9524 H       1  lig         0.1340
      3 H3         12.2287   17.0459   31.0035 H       1  lig         0.1475
      4 H4         15.2789   14.9021   33.0972 H       1  lig         0.1475
      5 H5         14.8095   13.1648   28.5943 H       1  lig         0.0877
      6 H6         14.1652   14.4938   27.6838 H       1  lig         0.0877
      7 H7         17.0369   14.0466   28.5610 H       1  lig         0.0966
      8 H8         16.4101   16.3238   29.2001 H       1  lig         0.4431
      9 H9         17.3984   16.3963   27.8693 H       1  lig         0.4431
     10 H10        15.7541   16.5915   27.6889 H       1  lig         0.4431
     11 H11        13.7330   16.1765   34.0119 H       1  lig         0.4214
     12 C1         13.4147   15.7607   29.8061 C.ar    1  lig        -0.0999
     13 C2         15.1318   14.5989   30.9742 C.ar    1  lig        -0.0999
     14 C3         13.0513   16.3394   30.9909 C.ar    1  lig        -0.1787
     15 C4         14.7476   15.1469   32.1831 C.ar    1  lig        -0.1787
     16 C5         14.4539   14.8817   29.7939 C.ar    1  lig        -0.1394
     17 C6         13.6713   16.0263   32.1715 C.ar    1  lig         0.1292
     18 C7         16.4463   14.2273   26.5447 C.2     1  lig         0.9321
     19 C8         14.8792   14.2529   28.4806 C.3     1  lig        -0.0452
     20 C9         16.2870   14.6057   27.9994 C.3     1  lig        -0.0740
     21 N1         16.4819   16.0399   28.2086 N.4     1  lig        -0.8252
     22 O1         16.8580   13.0850   26.3547 O.co2   1  lig        -0.7573
     23 O2         16.2108   15.0207   25.5887 O.co2   1  lig        -0.7573
     24 O3         13.2882   16.6183   33.2317 O.3     1  lig        -0.4913
@<TRIPOS>BOND
     1     1    12    1
     2     2    13    1
     3     3    14    1
     4     4    15    1
     5     5    19    1
     6     6    19    1
     7     7    20    1
     8     8    21    1
     9     9    21    1
    10    10    21    1
    11    11    24    1
    12    12    14   ar
    13    12    16   ar
    14    13    15   ar
    15    13    16   ar
    16    14    17   ar
    17    15    17   ar
    18    16    19    1
    19    17    24    1
    20    18    20    1
    21    18    22    1
    22    18    23    1
    23    19    20    1
    24    20    21    1
@<TRIPOS>SUBSTRUCTURE
     1 lig         1 TEMP              0 ****  ****    0 ROOT


########## Name:		ligand
########## HA_RMSDs:		17.8038
########## HA_RMSDh:		17.7673
########## HA_RMSDm:		16.3457
########## Cluster Size:	1
##########    Grid Score:           -2.137986
##########      Grid_vdw:           -1.903847
##########       Grid_es:           -0.234138
##########    Int_energy:            5.459830

@<TRIPOS>MOLECULE
ligand
 24 24 1 0 0
SMALL
No Charge or Current Charge


@<TRIPOS>ATOM
      1 H1         13.6771    4.1824   27.9302 H       1  lig         0.1340
      2 H2          9.4867    4.8267   28.4212 H       1  lig         0.1340
      3 H3         13.3976    4.4392   25.5209 H       1  lig         0.1475
      4 H4          9.1892    5.0376   25.9848 H       1  lig         0.1475
      5 H5         10.9848    3.6468   30.1859 H       1  lig         0.0877
      6 H6         12.7075    3.8139   30.0636 H       1  lig         0.0877
      7 H7         12.2115    5.5141   31.5827 H       1  lig         0.0966
      8 H8          9.7917    5.2011   31.3992 H       1  lig         0.4431
      9 H9         10.1238    6.8262   31.3593 H       1  lig         0.4431
     10 H10         9.7735    6.0196   29.9447 H       1  lig         0.4431
     11 H11        12.1277    4.6363   23.9492 H       1  lig         0.4214
     12 C1         12.6881    4.3631   27.5167 C.ar    1  lig        -0.0999
     13 C2         10.3507    4.7321   27.7676 C.ar    1  lig        -0.0999
     14 C3         12.5293    4.5129   26.1665 C.ar    1  lig        -0.1787
     15 C4         10.1725    4.8452   26.4020 C.ar    1  lig        -0.1787
     16 C5         11.5967    4.4658   28.3236 C.ar    1  lig        -0.1394
     17 C6         11.2996    4.7169   25.5989 C.ar    1  lig         0.1292
     18 C7         12.3928    6.7350   29.8730 C.2     1  lig         0.9321
     19 C8         11.7669    4.3246   29.8242 C.3     1  lig        -0.0452
     20 C9         11.6977    5.6243   30.6266 C.3     1  lig        -0.0740
     21 N1         10.2863    5.9297   30.8574 N.4     1  lig        -0.8252
     22 O1         11.7345    7.2221   28.9564 O.co2   1  lig        -0.7573
     23 O2         13.5687    7.1219   30.1305 O.co2   1  lig        -0.7573
     24 O3         11.2328    4.8633   24.3357 O.3     1  lig        -0.4913
@<TRIPOS>BOND
     1     1    12    1
     2     2    13    1
     3     3    14    1
     4     4    15    1
     5     5    19    1
     6     6    19    1
     7     7    20    1
     8     8    21    1
     9     9    21    1
    10    10    21    1
    11    11    24    1
    12    12    14   ar
    13    12    16   ar
    14    13    15   ar
    15    13    16   ar
    16    14    17   ar
    17    15    17   ar
    18    16    19    1
    19    17    24    1
    20    18    20    1
    21    18    22    1
    22    18    23    1
    23    19    20    1
    24    20    21    1
@<TRIPOS>SUBSTRUCTURE
     1 lig         1 TEMP              0 ****  ****    0 ROOT


########## Name:		ligand
########## HA_RMSDs:		16.9133
########## HA_RMSDh:		16.8109
########## HA_RMSDm:		14.3007
########## Cluster Size:	1
##########    Grid Score:           -1.271232
##########      Grid_vdw:           -1.707090
##########       Grid_es:            0.435858
##########    Int_energy:            2.284762

@<TRIPOS>MOLECULE
ligand
 24 24 1 0 0
SMALL
No Charge or Current Charge


@<TRIPOS>ATOM
      1 H1         20.0375   10.7651   29.4183 H       1  lig         0.1340
      2 H2         20.9648    8.9180   33.1525 H       1  lig         0.1340
      3 H3         21.1666    8.9318   28.2724 H       1  lig         0.1475
      4 H4         22.1500    7.0893   32.0035 H       1  lig         0.1475
      5 H5         20.3136   11.3401   32.9726 H       1  lig         0.0877
      6 H6         19.7539   12.0141   31.4749 H       1  lig         0.0877
      7 H7         18.2602   10.1613   33.3622 H       1  lig         0.0966
      8 H8         18.0624    9.2509   31.0997 H       1  lig         0.4431
      9 H9         16.6194    9.9541   31.5196 H       1  lig         0.4431
     10 H10        17.6657   10.7585   30.5035 H       1  lig         0.4431
     11 H11        23.0012    7.4004   28.7904 H       1  lig         0.4214
     12 C1         20.5012    9.9698   29.9964 C.ar    1  lig        -0.0999
     13 C2         21.0228    8.9186   32.0666 C.ar    1  lig        -0.0999
     14 C3         21.1303    8.9378   29.3562 C.ar    1  lig        -0.1787
     15 C4         21.6954    7.8920   31.4317 C.ar    1  lig        -0.1787
     16 C5         20.4504    9.9678   31.3567 C.ar    1  lig        -0.1394
     17 C6         21.7498    7.9277   30.0433 C.ar    1  lig         0.1292
     18 C7         17.5959   12.0998   32.8643 C.2     1  lig         0.9321
     19 C8         19.7343   11.0960   32.0745 C.3     1  lig        -0.0452
     20 C9         18.2896   10.8111   32.4863 C.3     1  lig        -0.0740
     21 N1         17.6282   10.1522   31.3607 N.4     1  lig        -0.8252
     22 O1         18.2167   12.8015   33.6598 O.co2   1  lig        -0.7573
     23 O2         16.4544   12.4293   32.4317 O.co2   1  lig        -0.7573
     24 O3         22.3011    6.9925   29.3779 O.3     1  lig        -0.4913
@<TRIPOS>BOND
     1     1    12    1
     2     2    13    1
     3     3    14    1
     4     4    15    1
     5     5    19    1
     6     6    19    1
     7     7    20    1
     8     8    21    1
     9     9    21    1
    10    10    21    1
    11    11    24    1
    12    12    14   ar
    13    12    16   ar
    14    13    15   ar
    15    13    16   ar
    16    14    17   ar
    17    15    17   ar
    18    16    19    1
    19    17    24    1
    20    18    20    1
    21    18    22    1
    22    18    23    1
    23    19    20    1
    24    20    21    1
@<TRIPOS>SUBSTRUCTURE
     1 lig         1 TEMP              0 ****  ****    0 ROOT


########## Name:		ligand
########## HA_RMSDs:		16.1222
########## HA_RMSDh:		16.0625
########## HA_RMSDm:		13.2001
########## Cluster Size:	1
##########    Grid Score:            2.648083
##########      Grid_vdw:           -0.463407
##########       Grid_es:            3.111490
##########    Int_energy:            2.878937

@<TRIPOS>MOLECULE
ligand
 24 24 1 0 0
SMALL
No Charge or Current Charge


@<TRIPOS>ATOM
      1 H1         22.5095    3.7665   14.3833 H       1  lig         0.1340
      2 H2         26.5541    4.6839   13.3758 H       1  lig         0.1340
      3 H3         23.1127    1.4063   14.5030 H       1  lig         0.1475
      4 H4         27.1591    2.2968   13.4459 H       1  lig         0.1475
      5 H5         23.3594    6.0251   14.5557 H       1  lig         0.0877
      6 H6         24.9727    6.4654   14.0931 H       1  lig         0.0877
      7 H7         24.3232    6.1435   11.6528 H       1  lig         0.0966
      8 H8         24.2432    8.3133   12.7807 H       1  lig         0.4431
      9 H9         22.9794    8.2222   11.7095 H       1  lig         0.4431
     10 H10        22.7020    7.9932   13.3359 H       1  lig         0.4431
     11 H11        26.3641    0.3160   13.9024 H       1  lig         0.4214
     12 C1         23.5296    3.4575   14.1697 C.ar    1  lig        -0.0999
     13 C2         25.7917    3.9467   13.6164 C.ar    1  lig        -0.0999
     14 C3         23.8718    2.1352   14.2413 C.ar    1  lig        -0.1787
     15 C4         26.1394    2.6097   13.6467 C.ar    1  lig        -0.1787
     16 C5         24.4882    4.3695   13.8500 C.ar    1  lig        -0.1394
     17 C6         25.1379    1.6970   13.9563 C.ar    1  lig         0.1292
     18 C7         22.3272    5.6140   12.0805 C.2     1  lig         0.9321
     19 C8         24.1233    5.8406   13.7913 C.3     1  lig        -0.0452
     20 C9         23.6002    6.3429   12.4452 C.3     1  lig        -0.0740
     21 N1         23.3821    7.7842   12.5628 N.4     1  lig        -0.8252
     22 O1         22.4949    4.5836   11.4318 O.co2   1  lig        -0.7573
     23 O2         21.1733    6.0337   12.3822 O.co2   1  lig        -0.7573
     24 O3         25.3852    0.4523   14.0604 O.3     1  lig        -0.4913
@<TRIPOS>BOND
     1     1    12    1
     2     2    13    1
     3     3    14    1
     4     4    15    1
     5     5    19    1
     6     6    19    1
     7     7    20    1
     8     8    21    1
     9     9    21    1
    10    10    21    1
    11    11    24    1
    12    12    14   ar
    13    12    16   ar
    14    13    15   ar
    15    13    16   ar
    16    14    17   ar
    17    15    17   ar
    18    16    19    1
    19    17    24    1
    20    18    20    1
    21    18    22    1
    22    18    23    1
    23    19    20    1
    24    20    21    1
@<TRIPOS>SUBSTRUCTURE
     1 lig         1 TEMP              0 ****  ****    0 ROOT


########## Name:		ligand
########## HA_RMSDs:		14.7739
########## HA_RMSDh:		14.7160
########## HA_RMSDm:		12.0644
########## Cluster Size:	1
##########    Grid Score:            5.147094
##########      Grid_vdw:            3.534863
##########       Grid_es:            1.612231
##########    Int_energy:           15.611961

@<TRIPOS>MOLECULE
ligand
 24 24 1 0 0
SMALL
No Charge or Current Charge


@<TRIPOS>ATOM
      1 H1         23.9580    2.3937   16.3253 H       1  lig         0.1340
      2 H2         23.5416    6.5186   15.3115 H       1  lig         0.1340
      3 H3         25.3446    3.0380   18.2256 H       1  lig         0.1475
      4 H4         24.9822    7.1732   17.1997 H       1  lig         0.1475
      5 H5         22.6855    2.9309   14.5377 H       1  lig         0.0877
      6 H6         21.7883    4.4125   14.6388 H       1  lig         0.0877
      7 H7         22.7382    3.9416   12.3474 H       1  lig         0.0966
      8 H8         24.8497    2.9883   13.1344 H       1  lig         0.4431
      9 H9         25.1827    4.2811   12.1491 H       1  lig         0.4431
     10 H10        25.2883    4.4536   13.8025 H       1  lig         0.4431
     11 H11        26.8082    4.8042   18.8055 H       1  lig         0.4214
     12 C1         24.1798    3.4432   16.5018 C.ar    1  lig        -0.0999
     13 C2         23.9551    5.7492   15.9594 C.ar    1  lig        -0.0999
     14 C3         24.9525    3.8077   17.5698 C.ar    1  lig        -0.1787
     15 C4         24.7674    6.1260   17.0118 C.ar    1  lig        -0.1787
     16 C5         23.6824    4.4136   15.6871 C.ar    1  lig        -0.1394
     17 C6         25.2785    5.1149   17.8169 C.ar    1  lig         0.1292
     18 C7         23.1687    5.9183   12.9424 C.2     1  lig         0.9321
     19 C8         22.8049    4.0204   14.5140 C.3     1  lig        -0.0452
     20 C9         23.3199    4.4264   13.1327 C.3     1  lig        -0.0740
     21 N1         24.7185    4.0094   13.0396 N.4     1  lig        -0.8252
     22 O1         22.3128    6.4411   13.6527 O.co2   1  lig        -0.7573
     23 O2         23.8379    6.5847   12.1016 O.co2   1  lig        -0.7573
     24 O3         25.9892    5.3784   18.8401 O.3     1  lig        -0.4913
@<TRIPOS>BOND
     1     1    12    1
     2     2    13    1
     3     3    14    1
     4     4    15    1
     5     5    19    1
     6     6    19    1
     7     7    20    1
     8     8    21    1
     9     9    21    1
    10    10    21    1
    11    11    24    1
    12    12    14   ar
    13    12    16   ar
    14    13    15   ar
    15    13    16   ar
    16    14    17   ar
    17    15    17   ar
    18    16    19    1
    19    17    24    1
    20    18    20    1
    21    18    22    1
    22    18    23    1
    23    19    20    1
    24    20    21    1
@<TRIPOS>SUBSTRUCTURE
     1 lig         1 TEMP              0 ****  ****    0 ROOT


########## Name:		ligand
########## HA_RMSDs:		13.3739
########## HA_RMSDh:		13.3336
########## HA_RMSDm:		10.9585
########## Cluster Size:	1
##########    Grid Score:            6.818406
##########      Grid_vdw:            9.569783
##########       Grid_es:           -2.751377
##########    Int_energy:           54.888237

@<TRIPOS>MOLECULE
ligand
 24 24 1 0 0
SMALL
No Charge or Current Charge


@<TRIPOS>ATOM
      1 H1         17.7579   17.7382   30.6007 H       1  lig         0.1340
      2 H2         13.6034   17.4534   29.6650 H       1  lig         0.1340
      3 H3         17.2156   17.3833   32.9520 H       1  lig         0.1475
      4 H4         13.0439   17.1444   32.0442 H       1  lig         0.1475
      5 H5         16.2943   16.8633   28.0998 H       1  lig         0.0877
      6 H6         15.1605   18.1697   27.9645 H       1  lig         0.0877
      7 H7         16.9836   19.7953   28.6462 H       1  lig         0.0966
      8 H8         16.4864   19.2739   26.3079 H       1  lig         0.4431
      9 H9         18.1213   19.5085   26.4660 H       1  lig         0.4431
     10 H10        17.5153   17.9607   26.3585 H       1  lig         0.4431
     11 H11        13.9280   16.9987   34.0354 H       1  lig         0.4214
     12 C1         16.7212   17.6158   30.9041 C.ar    1  lig        -0.0999
     13 C2         14.4008   17.4463   30.4045 C.ar    1  lig        -0.0999
     14 C3         16.4147   17.4112   32.2213 C.ar    1  lig        -0.1787
     15 C4         14.0762   17.2790   31.7371 C.ar    1  lig        -0.1787
     16 C5         15.7133   17.6407   29.9896 C.ar    1  lig        -0.1394
     17 C6         15.1218   17.2770   32.6529 C.ar    1  lig         0.1292
     18 C7         18.4659   18.3135   28.8782 C.2     1  lig         0.9321
     19 C8         16.0458   17.8433   28.5236 C.3     1  lig        -0.0452
     20 C9         17.1940   18.8093   28.2294 C.3     1  lig        -0.0740
     21 N1         17.3316   18.9069   26.7768 N.4     1  lig        -0.8252
     22 O1         18.5439   17.0916   28.9850 O.co2   1  lig        -0.7573
     23 O2         19.3721   19.0816   29.3115 O.co2   1  lig        -0.7573
     24 O3         14.9158   17.0730   33.8928 O.3     1  lig        -0.4913
@<TRIPOS>BOND
     1     1    12    1
     2     2    13    1
     3     3    14    1
     4     4    15    1
     5     5    19    1
     6     6    19    1
     7     7    20    1
     8     8    21    1
     9     9    21    1
    10    10    21    1
    11    11    24    1
    12    12    14   ar
    13    12    16   ar
    14    13    15   ar
    15    13    16   ar
    16    14    17   ar
    17    15    17   ar
    18    16    19    1
    19    17    24    1
    20    18    20    1
    21    18    22    1
    22    18    23    1
    23    19    20    1
    24    20    21    1
@<TRIPOS>SUBSTRUCTURE
     1 lig         1 TEMP              0 ****  ****    0 ROOT


########## Name:		ligand
########## HA_RMSDs:		16.4725
########## HA_RMSDh:		16.4327
########## HA_RMSDm:		14.0642
########## Cluster Size:	1
##########    Grid Score:            8.097827
##########      Grid_vdw:            1.803505
##########       Grid_es:            6.294322
##########    Int_energy:            2.430213

@<TRIPOS>MOLECULE
ligand
 24 24 1 0 0
SMALL
No Charge or Current Charge


@<TRIPOS>ATOM
      1 H1         26.5748    1.7430   14.7720 H       1  lig         0.1340
      2 H2         24.0471    5.1322   14.1898 H       1  lig         0.1340
      3 H3         27.7025    2.9389   16.5739 H       1  lig         0.1475
      4 H4         25.2145    6.3645   15.9752 H       1  lig         0.1475
      5 H5         24.0178    3.3673   12.6277 H       1  lig         0.0877
      6 H6         25.2586    2.1562   12.5618 H       1  lig         0.0877
      7 H7         24.0386    0.7436   14.1986 H       1  lig         0.0966
      8 H8         23.4777    0.6272   11.8198 H       1  lig         0.4431
      9 H9         22.0977    0.3757   12.7060 H       1  lig         0.4431
     10 H10        22.3663    1.8596   11.9984 H       1  lig         0.4431
     11 H11        27.8338    4.6050   17.7073 H       1  lig         0.4214
     12 C1         26.2714    2.7566   15.0211 C.ar    1  lig        -0.0999
     13 C2         24.8684    4.6548   14.7190 C.ar    1  lig        -0.0999
     14 C3         26.8984    3.4276   16.0347 C.ar    1  lig        -0.1787
     15 C4         25.5212    5.3566   15.7143 C.ar    1  lig        -0.1787
     16 C5         25.2564    3.3709   14.3537 C.ar    1  lig        -0.1394
     17 C6         26.5667    4.7143   16.3671 C.ar    1  lig         0.1292
     18 C7         22.5636    2.1683   14.6898 C.2     1  lig         0.9321
     19 C8         24.5396    2.6257   13.2439 C.3     1  lig        -0.0452
     20 C9         23.5316    1.5685   13.6958 C.3     1  lig        -0.0740
     21 N1         22.8437    1.0722   12.5046 N.4     1  lig        -0.8252
     22 O1         22.9156    2.0812   15.8641 O.co2   1  lig        -0.7573
     23 O2         21.4611    2.6920   14.3594 O.co2   1  lig        -0.7573
     24 O3         27.1842    5.2681   17.3332 O.3     1  lig        -0.4913
@<TRIPOS>BOND
     1     1    12    1
     2     2    13    1
     3     3    14    1
     4     4    15    1
     5     5    19    1
     6     6    19    1
     7     7    20    1
     8     8    21    1
     9     9    21    1
    10    10    21    1
    11    11    24    1
    12    12    14   ar
    13    12    16   ar
    14    13    15   ar
    15    13    16   ar
    16    14    17   ar
    17    15    17   ar
    18    16    19    1
    19    17    24    1
    20    18    20    1
    21    18    22    1
    22    18    23    1
    23    19    20    1
    24    20    21    1
@<TRIPOS>SUBSTRUCTURE
     1 lig         1 TEMP              0 ****  ****    0 ROOT


########## Name:		ligand
########## HA_RMSDs:		14.0052
########## HA_RMSDh:		13.9928
########## HA_RMSDm:		12.2229
########## Cluster Size:	1
##########    Grid Score:           13.837036
##########      Grid_vdw:           12.280959
##########       Grid_es:            1.556077
##########    Int_energy:           29.395792

@<TRIPOS>MOLECULE
ligand
 24 24 1 0 0
SMALL
No Charge or Current Charge


@<TRIPOS>ATOM
      1 H1         15.6854   13.2789   32.1403 H       1  lig         0.1340
      2 H2         13.3875   16.1529   29.9781 H       1  lig         0.1340
      3 H3         15.6771   14.7750   34.0666 H       1  lig         0.1475
      4 H4         13.4178   17.6901   31.9030 H       1  lig         0.1475
      5 H5         15.5050   13.8039   29.2208 H       1  lig         0.0877
      6 H6         14.5172   12.6507   30.0604 H       1  lig         0.0877
      7 H7         12.4441   13.8380   29.2099 H       1  lig         0.0966
      8 H8         13.4560   11.9444   28.0364 H       1  lig         0.4431
      9 H9         12.8507   13.0057   26.9138 H       1  lig         0.4431
     10 H10        14.4875   12.9722   27.2207 H       1  lig         0.4431
     11 H11        14.1403   17.8983   33.9529 H       1  lig         0.4214
     12 C1         15.1906   14.2445   32.0730 C.ar    1  lig        -0.0999
     13 C2         13.9034   15.8580   30.8889 C.ar    1  lig        -0.0999
     14 C3         15.1798   15.0831   33.1534 C.ar    1  lig        -0.1787
     15 C4         13.9204   16.7299   31.9607 C.ar    1  lig        -0.1787
     16 C5         14.5570   14.6318   30.9323 C.ar    1  lig        -0.1394
     17 C6         14.5908   16.3188   33.1068 C.ar    1  lig         0.1292
     18 C7         13.5085   15.3252   28.1601 C.2     1  lig         0.9321
     19 C8         14.5435   13.6983   29.7368 C.3     1  lig        -0.0452
     20 C9         13.4183   13.9269   28.7270 C.3     1  lig        -0.0740
     21 N1         13.5456   12.9116   27.6822 N.4     1  lig        -0.8252
     22 O1         14.6477   15.7834   28.1058 O.co2   1  lig        -0.7573
     23 O2         12.5001   15.9959   27.7967 O.co2   1  lig        -0.7573
     24 O3         14.6072   17.0371   34.1580 O.3     1  lig        -0.4913
@<TRIPOS>BOND
     1     1    12    1
     2     2    13    1
     3     3    14    1
     4     4    15    1
     5     5    19    1
     6     6    19    1
     7     7    20    1
     8     8    21    1
     9     9    21    1
    10    10    21    1
    11    11    24    1
    12    12    14   ar
    13    12    16   ar
    14    13    15   ar
    15    13    16   ar
    16    14    17   ar
    17    15    17   ar
    18    16    19    1
    19    17    24    1
    20    18    20    1
    21    18    22    1
    22    18    23    1
    23    19    20    1
    24    20    21    1
@<TRIPOS>SUBSTRUCTURE
     1 lig         1 TEMP              0 ****  ****    0 ROOT


########## Name:		ligand
########## HA_RMSDs:		11.7144
########## HA_RMSDh:		11.6990
########## HA_RMSDm:		9.8726
########## Cluster Size:	1
##########    Grid Score:           47.025608
##########      Grid_vdw:           47.805531
##########       Grid_es:           -0.779922
##########    Int_energy:            2.058788

@<TRIPOS>MOLECULE
ligand
 24 24 1 0 0
SMALL
No Charge or Current Charge


@<TRIPOS>ATOM
      1 H1         18.2304   17.1695   29.8921 H       1  lig         0.1340
      2 H2         14.1590   17.4922   28.6529 H       1  lig         0.1340
      3 H3         17.4869   17.1867   32.2150 H       1  lig         0.1475
      4 H4         13.4051   17.5604   30.9973 H       1  lig         0.1475
      5 H5         16.8156   18.3628   27.3493 H       1  lig         0.0877
      6 H6         17.7028   16.8924   27.5970 H       1  lig         0.0877
      7 H7         14.7663   17.0268   26.7422 H       1  lig         0.0966
      8 H8         15.3501   15.0459   28.0544 H       1  lig         0.4431
      9 H9         15.1494   14.5959   26.4700 H       1  lig         0.4431
     10 H10        16.6851   14.7730   27.0904 H       1  lig         0.4431
     11 H11        15.9476   17.2283   33.5226 H       1  lig         0.4214
     12 C1         17.1716   17.2619   30.1204 C.ar    1  lig        -0.0999
     13 C2         14.8942   17.4346   29.4521 C.ar    1  lig        -0.0999
     14 C3         16.7514   17.2663   31.4220 C.ar    1  lig        -0.1787
     15 C4         14.4620   17.4803   30.7638 C.ar    1  lig        -0.1787
     16 C5         16.2437   17.3527   29.1286 C.ar    1  lig        -0.1394
     17 C6         15.4308   17.4057   31.7576 C.ar    1  lig         0.1292
     18 C7         16.2745   16.7664   25.2916 C.2     1  lig         0.9321
     19 C8         16.6984   17.3247   27.6818 C.3     1  lig        -0.0452
     20 C9         15.7698   16.6003   26.7067 C.3     1  lig        -0.0740
     21 N1         15.7219   15.1928   27.1009 N.4     1  lig        -0.8252
     22 O1         15.8349   17.7519   24.7033 O.co2   1  lig        -0.7573
     23 O2         17.0603   15.9490   24.7318 O.co2   1  lig        -0.7573
     24 O3         15.1143   17.3846   32.9908 O.3     1  lig        -0.4913
@<TRIPOS>BOND
     1     1    12    1
     2     2    13    1
     3     3    14    1
     4     4    15    1
     5     5    19    1
     6     6    19    1
     7     7    20    1
     8     8    21    1
     9     9    21    1
    10    10    21    1
    11    11    24    1
    12    12    14   ar
    13    12    16   ar
    14    13    15   ar
    15    13    16   ar
    16    14    17   ar
    17    15    17   ar
    18    16    19    1
    19    17    24    1
    20    18    20    1
    21    18    22    1
    22    18    23    1
    23    19    20    1
    24    20    21    1
@<TRIPOS>SUBSTRUCTURE
     1 lig         1 TEMP              0 ****  ****    0 ROOT


########## Name:		ligand
########## HA_RMSDs:		13.9437
########## HA_RMSDh:		13.9081
########## HA_RMSDm:		10.3756
########## Cluster Size:	1
##########    Grid Score:          298.313629
##########      Grid_vdw:          298.850830
##########       Grid_es:           -0.537206
##########    Int_energy:           17.426424

@<TRIPOS>MOLECULE
ligand
 24 24 1 0 0
SMALL
No Charge or Current Charge


@<TRIPOS>ATOM
      1 H1         15.6720   17.6591   32.6835 H       1  lig         0.1340
      2 H2         18.1872   17.7399   29.2364 H       1  lig         0.1340
      3 H3         13.7897   18.3216   31.2810 H       1  lig         0.1475
      4 H4         16.3013   18.4575   27.8231 H       1  lig         0.1475
      5 H5         17.8150   16.7783   32.8174 H       1  lig         0.0877
      6 H6         18.7991   16.4589   31.4245 H       1  lig         0.0877
      7 H7         20.0049   17.9610   32.9268 H       1  lig         0.0966
      8 H8         18.0235   18.9113   34.0029 H       1  lig         0.4431
      9 H9         18.9739   20.1516   33.4448 H       1  lig         0.4431
     10 H10        17.6124   19.7069   32.5944 H       1  lig         0.4431
     11 H11        13.1017   18.7860   29.4408 H       1  lig         0.4214
     12 C1         15.8247   17.8368   31.6220 C.ar    1  lig        -0.0999
     13 C2         17.2069   17.8812   29.6855 C.ar    1  lig        -0.0999
     14 C3         14.7698   18.2031   30.8322 C.ar    1  lig        -0.1787
     15 C4         16.1570   18.2903   28.8858 C.ar    1  lig        -0.1787
     16 C5         17.0509   17.6804   31.0522 C.ar    1  lig        -0.1394
     17 C6         14.9198   18.4617   29.4955 C.ar    1  lig         0.1292
     18 C7         19.7842   19.0184   31.1157 C.2     1  lig         0.9321
     19 C8         18.2217   17.2514   31.9160 C.3     1  lig        -0.0452
     20 C9         19.1803   18.3654   32.3378 C.3     1  lig        -0.0740
     21 N1         18.4225   19.3229   33.1425 N.4     1  lig        -0.8252
     22 O1         19.9051   18.2748   30.1446 O.co2   1  lig        -0.7573
     23 O2         20.1694   20.2224   31.0877 O.co2   1  lig        -0.7573
     24 O3         13.8881   18.7823   28.8217 O.3     1  lig        -0.4913
@<TRIPOS>BOND
     1     1    12    1
     2     2    13    1
     3     3    14    1
     4     4    15    1
     5     5    19    1
     6     6    19    1
     7     7    20    1
     8     8    21    1
     9     9    21    1
    10    10    21    1
    11    11    24    1
    12    12    14   ar
    13    12    16   ar
    14    13    15   ar
    15    13    16   ar
    16    14    17   ar
    17    15    17   ar
    18    16    19    1
    19    17    24    1
    20    18    20    1
    21    18    22    1
    22    18    23    1
    23    19    20    1
    24    20    21    1
@<TRIPOS>SUBSTRUCTURE
     1 lig         1 TEMP              0 ****  ****    0 ROOT


########## Name:		ligand
########## HA_RMSDs:		15.2968
########## HA_RMSDh:		15.1753
########## HA_RMSDm:		11.8837
########## Cluster Size:	1
##########    Grid Score:          634.352051
##########      Grid_vdw:          631.369080
##########       Grid_es:            2.982984
##########    Int_energy:            3.535332

@<TRIPOS>MOLECULE
ligand
 24 24 1 0 0
SMALL
No Charge or Current Charge


@<TRIPOS>ATOM
      1 H1         21.8112    4.2605   11.9882 H       1  lig         0.1340
      2 H2         25.4199    5.5080   13.8952 H       1  lig         0.1340
      3 H3         22.8585    2.1148   11.4906 H       1  lig         0.1475
      4 H4         26.5005    3.3617   13.3521 H       1  lig         0.1475
      5 H5         21.8981    6.1486   13.6597 H       1  lig         0.0877
      6 H6         23.4199    6.8467   14.1151 H       1  lig         0.0877
      7 H7         22.3394    6.8739   11.2513 H       1  lig         0.0966
      8 H8         24.7709    7.0197   11.4830 H       1  lig         0.4431
      9 H9         24.1878    8.5069   11.0345 H       1  lig         0.4431
     10 H10        24.6124    8.2302   12.6212 H       1  lig         0.4431
     11 H11        26.1812    1.4681   12.2897 H       1  lig         0.4214
     12 C1         22.8405    4.0790   12.2869 C.ar    1  lig        -0.0999
     13 C2         24.8599    4.7508   13.3515 C.ar    1  lig        -0.0999
     14 C3         23.4285    2.8746   12.0139 C.ar    1  lig        -0.1787
     15 C4         25.4769    3.5528   13.0458 C.ar    1  lig        -0.1787
     16 C5         23.5571    5.0259   12.9522 C.ar    1  lig        -0.1394
     17 C6         24.7301    2.6103   12.3488 C.ar    1  lig         0.1292
     18 C7         21.9127    8.5080   12.5141 C.2     1  lig         0.9321
     19 C8         22.9055    6.3558   13.2801 C.3     1  lig        -0.0452
     20 C9         22.7975    7.3473   12.1210 C.3     1  lig        -0.0740
     21 N1         24.1508    7.7893   11.7867 N.4     1  lig        -0.8252
     22 O1         20.9726    8.2101   13.2476 O.co2   1  lig        -0.7573
     23 O2         22.0918    9.6906   12.1039 O.co2   1  lig        -0.7573
     24 O3         25.2034    1.4600   12.0763 O.3     1  lig        -0.4913
@<TRIPOS>BOND
     1     1    12    1
     2     2    13    1
     3     3    14    1
     4     4    15    1
     5     5    19    1
     6     6    19    1
     7     7    20    1
     8     8    21    1
     9     9    21    1
    10    10    21    1
    11    11    24    1
    12    12    14   ar
    13    12    16   ar
    14    13    15   ar
    15    13    16   ar
    16    14    17   ar
    17    15    17   ar
    18    16    19    1
    19    17    24    1
    20    18    20    1
    21    18    22    1
    22    18    23    1
    23    19    20    1
    24    20    21    1
@<TRIPOS>SUBSTRUCTURE
     1 lig         1 TEMP              0 ****  ****    0 ROOT

