
########## Name:		ligand
########## HA_RMSDs:		6.5089
########## HA_RMSDh:		6.0410
########## HA_RMSDm:		3.3022
########## Cluster Size:	149
##########    Grid Score:          -35.131710
##########      Grid_vdw:          -34.867153
##########       Grid_es:           -0.264555
##########    Int_energy:            3.491742

@<TRIPOS>MOLECULE
ligand
 33 35 1 0 0
SMALL
No Charge or Current Charge


@<TRIPOS>ATOM
      1 H1         12.2323   17.9370   19.0390 H       1  lig         0.0618
      2 H2         14.1867   19.2173   19.7884 H       1  lig         0.0618
      3 H3         12.3029   15.4495   18.8906 H       1  lig         0.0624
      4 H4         16.3202   18.1259   20.4056 H       1  lig         0.0638
      5 H5         14.0856   10.7183   19.0963 H       1  lig         0.0618
      6 H6         16.4621   10.5756   19.7129 H       1  lig         0.0618
      7 H7         12.9616   12.9340   18.9112 H       1  lig         0.0624
      8 H8         17.7733   12.5505   20.3905 H       1  lig         0.0638
      9 H9         20.4969   15.2583   20.9615 H       1  lig         0.0379
     10 H10        21.0958   15.2412   19.3256 H       1  lig         0.0379
     11 H11        18.8156   14.7006   18.9100 H       1  lig         0.0288
     12 H12        18.6989   16.4461   18.8734 H       1  lig         0.0288
     13 H13        17.8828   16.5859   21.1335 H       1  lig         0.0492
     14 H14        18.2605   14.8935   21.4475 H       1  lig         0.0492
     15 C1         13.1444   17.4082   19.3007 C.ar    1  lig        -0.0611
     16 C2         14.2662   18.1360   19.7231 C.ar    1  lig        -0.0598
     17 C3         13.1754   16.0113   19.2135 C.ar    1  lig        -0.0520
     18 C4         15.4755   17.5266   20.0771 C.ar    1  lig        -0.0376
     19 C5         14.3776   15.3929   19.5582 C.ar    1  lig         0.0076
     20 C6         15.5763   16.1326   20.0008 C.ar    1  lig         0.0501
     21 C7         14.6246   11.6221   19.3732 C.ar    1  lig        -0.0611
     22 C8         15.9631   11.5261   19.7886 C.ar    1  lig        -0.0598
     23 C9         13.9890   12.8655   19.2508 C.ar    1  lig        -0.0520
     24 C10        16.7280   12.6593   20.1144 C.ar    1  lig        -0.0376
     25 C11        14.7380   13.9886   19.5766 C.ar    1  lig         0.0076
     26 C12        16.1494   13.9261   20.0181 C.ar    1  lig         0.0501
     27 C13        20.7961   17.1918   20.1675 C.2     1  lig         0.3561
     28 C14        20.3940   15.7437   19.9902 C.3     1  lig         0.0508
     29 C15        18.9337   15.5970   19.5204 C.3     1  lig        -0.0247
     30 C16        17.9191   15.5929   20.6785 C.3     1  lig         0.0244
     31 N1         16.5613   15.2160   20.2563 N.pl3   1  lig        -0.3398
     32 O1         22.0781   17.5435   20.1765 O.co2   1  lig        -0.2464
     33 O2         19.9563   18.0686   20.3112 O.co2   1  lig        -0.2464
@<TRIPOS>BOND
     1    27    33    1
     2    27    32    1
     3    27    28    1
     4    28    29    1
     5     9    28    1
     6    10    28    1
     7    29    30    1
     8    11    29    1
     9    12    29    1
    10    30    31    1
    11    13    30    1
    12    14    30    1
    13    26    31    1
    14    20    31    1
    15    24    26   ar
    16    25    26   ar
    17    22    24   ar
    18     8    24    1
    19    23    25   ar
    20    19    25    1
    21    21    23   ar
    22     7    23    1
    23    21    22   ar
    24     5    21    1
    25     6    22    1
    26    19    20   ar
    27    17    19   ar
    28    18    20   ar
    29    16    18   ar
    30     4    18    1
    31    15    17   ar
    32     3    17    1
    33    15    16   ar
    34     1    15    1
    35     2    16    1
@<TRIPOS>SUBSTRUCTURE
     1 lig         1 TEMP              0 ****  ****    0 ROOT


########## Name:		ligand
########## HA_RMSDs:		6.2250
########## HA_RMSDh:		6.0571
########## HA_RMSDm:		4.2581
########## Cluster Size:	208
##########    Grid Score:          -35.109844
##########      Grid_vdw:          -34.945358
##########       Grid_es:           -0.164486
##########    Int_energy:            3.710154

@<TRIPOS>MOLECULE
ligand
 33 35 1 0 0
SMALL
No Charge or Current Charge


@<TRIPOS>ATOM
      1 H1         14.3109   10.5259   19.2787 H       1  lig         0.0618
      2 H2         16.6929   10.5296   19.8672 H       1  lig         0.0618
      3 H3         13.0349   12.6568   19.0645 H       1  lig         0.0624
      4 H4         17.9403   12.6221   20.3023 H       1  lig         0.0638
      5 H5         12.0002   17.6099   19.1116 H       1  lig         0.0618
      6 H6         13.8908   19.0153   19.8176 H       1  lig         0.0618
      7 H7         12.2389   15.1318   19.0126 H       1  lig         0.0624
      8 H8         16.1397   18.0947   20.2344 H       1  lig         0.0638
      9 H9         20.4935   15.3193   20.9792 H       1  lig         0.0379
     10 H10        21.1592   15.0594   19.3903 H       1  lig         0.0379
     11 H11        18.8941   14.3786   19.0361 H       1  lig         0.0288
     12 H12        18.7820   16.0747   18.6208 H       1  lig         0.0288
     13 H13        17.8872   16.6830   20.7858 H       1  lig         0.0492
     14 H14        18.2002   15.0738   21.4322 H       1  lig         0.0492
     15 C1         14.8119   11.4732   19.4571 C.ar    1  lig        -0.0611
     16 C2         16.1715   11.4801   19.8004 C.ar    1  lig        -0.0598
     17 C3         14.0873   12.6649   19.3355 C.ar    1  lig        -0.0520
     18 C4         16.8853   12.6590   20.0449 C.ar    1  lig        -0.0376
     19 C5         14.7869   13.8464   19.5828 C.ar    1  lig         0.0076
     20 C6         16.2161   13.8848   19.9513 C.ar    1  lig         0.0501
     21 C7         12.9700   17.1528   19.2981 C.ar    1  lig        -0.0611
     22 C8         14.0625   17.9685   19.6363 C.ar    1  lig        -0.0598
     23 C9         13.0909   15.7568   19.2555 C.ar    1  lig        -0.0520
     24 C10        15.3287   17.4365   19.9348 C.ar    1  lig        -0.0376
     25 C11        14.3410   15.2256   19.5442 C.ar    1  lig         0.0076
     26 C12        15.5143   16.0532   19.9037 C.ar    1  lig         0.0501
     27 C13        20.7875   17.1101   19.8998 C.2     1  lig         0.3561
     28 C14        20.4212   15.6423   19.9399 C.3     1  lig         0.0508
     29 C15        18.9845   15.3859   19.4450 C.3     1  lig        -0.0247
     30 C16        17.9162   15.6213   20.5285 C.3     1  lig         0.0244
     31 N1         16.5697   15.1977   20.1145 N.pl3   1  lig        -0.3398
     32 O1         21.9179   17.5116   19.3269 O.co2   1  lig        -0.2464
     33 O2         20.0592   17.9578   20.3954 O.co2   1  lig        -0.2464
@<TRIPOS>BOND
     1    27    33    1
     2    27    32    1
     3    27    28    1
     4    28    29    1
     5     9    28    1
     6    10    28    1
     7    29    30    1
     8    11    29    1
     9    12    29    1
    10    30    31    1
    11    13    30    1
    12    14    30    1
    13    26    31    1
    14    20    31    1
    15    24    26   ar
    16    25    26   ar
    17    22    24   ar
    18     8    24    1
    19    23    25   ar
    20    19    25    1
    21    21    23   ar
    22     7    23    1
    23    21    22   ar
    24     5    21    1
    25     6    22    1
    26    19    20   ar
    27    17    19   ar
    28    18    20   ar
    29    16    18   ar
    30     4    18    1
    31    15    17   ar
    32     3    17    1
    33    15    16   ar
    34     1    15    1
    35     2    16    1
@<TRIPOS>SUBSTRUCTURE
     1 lig         1 TEMP              0 ****  ****    0 ROOT


########## Name:		ligand
########## HA_RMSDs:		5.9728
########## HA_RMSDh:		5.1617
########## HA_RMSDm:		2.6800
########## Cluster Size:	17
##########    Grid Score:          -34.784359
##########      Grid_vdw:          -36.100937
##########       Grid_es:            1.316576
##########    Int_energy:            3.626405

@<TRIPOS>MOLECULE
ligand
 33 35 1 0 0
SMALL
No Charge or Current Charge


@<TRIPOS>ATOM
      1 H1         16.4010   20.8974   20.3258 H       1  lig         0.0618
      2 H2         14.4964   20.1824   18.9540 H       1  lig         0.0618
      3 H3         18.0775   19.2509   21.1583 H       1  lig         0.0624
      4 H4         14.1227   17.8119   18.3501 H       1  lig         0.0638
      5 H5         20.3818   14.8303   22.0264 H       1  lig         0.0618
      6 H6         19.1809   12.8861   21.1175 H       1  lig         0.0618
      7 H7         19.4567   17.1269   21.7484 H       1  lig         0.0624
      8 H8         17.1650   13.1135   19.7164 H       1  lig         0.0638
      9 H9         14.8400   13.2806   20.7230 H       1  lig         0.0379
     10 H10        13.1150   13.1558   20.9327 H       1  lig         0.0379
     11 H11        13.5446   15.4273   20.1009 H       1  lig         0.0288
     12 H12        12.9063   14.5300   18.7410 H       1  lig         0.0288
     13 H13        14.6893   15.4759   17.6600 H       1  lig         0.0492
     14 H14        15.4757   14.0102   18.2420 H       1  lig         0.0492
     15 C1         16.2848   19.8440   20.0872 C.ar    1  lig        -0.0611
     16 C2         15.1942   19.4296   19.3092 C.ar    1  lig        -0.0598
     17 C3         17.2305   18.9262   20.5597 C.ar    1  lig        -0.0520
     18 C4         14.9772   18.0916   18.9603 C.ar    1  lig        -0.0376
     19 C5         17.0214   17.5885   20.2232 C.ar    1  lig         0.0076
     20 C6         15.8802   17.1218   19.4110 C.ar    1  lig         0.0501
     21 C7         19.4872   14.9832   21.4260 C.ar    1  lig        -0.0611
     22 C8         18.8434   13.8734   20.8540 C.ar    1  lig        -0.0598
     23 C9         18.9654   16.2770   21.2882 C.ar    1  lig        -0.0520
     24 C10        17.6590   13.9987   20.1077 C.ar    1  lig        -0.0376
     25 C11        17.7982   16.4078   20.5473 C.ar    1  lig         0.0076
     26 C12        17.0928   15.2623   19.9298 C.ar    1  lig         0.0501
     27 C13        13.9103   12.0822   19.2539 C.2     1  lig         0.3561
     28 C14        13.8936   13.2784   20.1808 C.3     1  lig         0.0508
     29 C15        13.7641   14.6088   19.4140 C.3     1  lig        -0.0247
     30 C16        15.0019   14.9432   18.5616 C.3     1  lig         0.0244
     31 N1         15.9918   15.7635   19.2766 N.pl3   1  lig        -0.3398
     32 O1         14.7738   11.0894   19.4435 O.co2   1  lig        -0.2464
     33 O2         13.1378   12.0025   18.3098 O.co2   1  lig        -0.2464
@<TRIPOS>BOND
     1    27    33    1
     2    27    32    1
     3    27    28    1
     4    28    29    1
     5     9    28    1
     6    10    28    1
     7    29    30    1
     8    11    29    1
     9    12    29    1
    10    30    31    1
    11    13    30    1
    12    14    30    1
    13    26    31    1
    14    20    31    1
    15    24    26   ar
    16    25    26   ar
    17    22    24   ar
    18     8    24    1
    19    23    25   ar
    20    19    25    1
    21    21    23   ar
    22     7    23    1
    23    21    22   ar
    24     5    21    1
    25     6    22    1
    26    19    20   ar
    27    17    19   ar
    28    18    20   ar
    29    16    18   ar
    30     4    18    1
    31    15    17   ar
    32     3    17    1
    33    15    16   ar
    34     1    15    1
    35     2    16    1
@<TRIPOS>SUBSTRUCTURE
     1 lig         1 TEMP              0 ****  ****    0 ROOT


########## Name:		ligand
########## HA_RMSDs:		4.9529
########## HA_RMSDh:		4.9305
########## HA_RMSDm:		0.5159
########## Cluster Size:	20
##########    Grid Score:          -34.475681
##########      Grid_vdw:          -35.371685
##########       Grid_es:            0.896004
##########    Int_energy:            2.474305

@<TRIPOS>MOLECULE
ligand
 33 35 1 0 0
SMALL
No Charge or Current Charge


@<TRIPOS>ATOM
      1 H1         21.2238   17.6454   20.4990 H       1  lig         0.0618
      2 H2         21.1783   15.2256   20.0952 H       1  lig         0.0618
      3 H3         19.1381   19.0069   20.3951 H       1  lig         0.0624
      4 H4         19.0890   14.0201   19.5424 H       1  lig         0.0638
      5 H5         14.2628   20.2041   19.7596 H       1  lig         0.0618
      6 H6         12.8564   18.3128   19.0576 H       1  lig         0.0618
      7 H7         16.7062   19.8890   20.1313 H       1  lig         0.0624
      8 H8         13.7181   16.0075   18.9094 H       1  lig         0.0638
      9 H9         14.1997   12.3063   21.2802 H       1  lig         0.0379
     10 H10        13.6833   13.7186   20.4004 H       1  lig         0.0379
     11 H11        16.4641   12.3681   20.2381 H       1  lig         0.0288
     12 H12        16.0911   13.8273   21.1289 H       1  lig         0.0288
     13 H13        15.2388   14.1979   18.3801 H       1  lig         0.0492
     14 H14        16.9124   13.6469   18.4120 H       1  lig         0.0492
     15 C1         20.2788   17.1646   20.2623 C.ar    1  lig        -0.0611
     16 C2         20.2488   15.7830   20.0241 C.ar    1  lig        -0.0598
     17 C3         19.1126   17.9371   20.2052 C.ar    1  lig        -0.0520
     18 C4         19.0712   15.0929   19.7141 C.ar    1  lig        -0.0376
     19 C5         17.9333   17.2611   19.8911 C.ar    1  lig         0.0076
     20 C6         17.8716   15.8092   19.6299 C.ar    1  lig         0.0501
     21 C7         14.6948   19.2075   19.6951 C.ar    1  lig        -0.0611
     22 C8         13.8716   18.1202   19.3583 C.ar    1  lig        -0.0598
     23 C9         16.0732   19.0424   19.8904 C.ar    1  lig        -0.0520
     24 C10        14.3768   16.8167   19.2130 C.ar    1  lig        -0.0376
     25 C11        16.5773   17.7558   19.7535 C.ar    1  lig         0.0076
     26 C12        15.7409   16.5867   19.4004 C.ar    1  lig         0.0501
     27 C13        13.9100   11.9408   19.2208 C.2     1  lig         0.3561
     28 C14        14.3431   12.8534   20.3476 C.3     1  lig         0.0508
     29 C15        15.8271   13.2537   20.2366 C.3     1  lig        -0.0247
     30 C16        16.1312   14.1292   19.0072 C.3     1  lig         0.0244
     31 N1         16.5678   15.4891   19.3595 N.pl3   1  lig        -0.3398
     32 O1         14.2750   10.6626   19.2050 O.co2   1  lig        -0.2464
     33 O2         13.2220   12.3558   18.2994 O.co2   1  lig        -0.2464
@<TRIPOS>BOND
     1    27    33    1
     2    27    32    1
     3    27    28    1
     4    28    29    1
     5     9    28    1
     6    10    28    1
     7    29    30    1
     8    11    29    1
     9    12    29    1
    10    30    31    1
    11    13    30    1
    12    14    30    1
    13    26    31    1
    14    20    31    1
    15    24    26   ar
    16    25    26   ar
    17    22    24   ar
    18     8    24    1
    19    23    25   ar
    20    19    25    1
    21    21    23   ar
    22     7    23    1
    23    21    22   ar
    24     5    21    1
    25     6    22    1
    26    19    20   ar
    27    17    19   ar
    28    18    20   ar
    29    16    18   ar
    30     4    18    1
    31    15    17   ar
    32     3    17    1
    33    15    16   ar
    34     1    15    1
    35     2    16    1
@<TRIPOS>SUBSTRUCTURE
     1 lig         1 TEMP              0 ****  ****    0 ROOT


########## Name:		ligand
########## HA_RMSDs:		5.9676
########## HA_RMSDh:		5.0727
########## HA_RMSDm:		3.7828
########## Cluster Size:	12
##########    Grid Score:          -34.338772
##########      Grid_vdw:          -33.323692
##########       Grid_es:           -1.015078
##########    Int_energy:            4.671863

@<TRIPOS>MOLECULE
ligand
 33 35 1 0 0
SMALL
No Charge or Current Charge


@<TRIPOS>ATOM
      1 H1         14.6430   10.2571   19.1549 H       1  lig         0.0618
      2 H2         12.7288   11.7054   18.6465 H       1  lig         0.0618
      3 H3         16.7679   11.2009   20.0544 H       1  lig         0.0624
      4 H4         12.8086   14.1577   18.9688 H       1  lig         0.0638
      5 H5         20.1644   14.5867   21.6684 H       1  lig         0.0618
      6 H6         19.3968   16.9180   21.5151 H       1  lig         0.0618
      7 H7         18.6884   12.7215   20.9268 H       1  lig         0.0624
      8 H8         17.0974   17.5123   20.8528 H       1  lig         0.0638
      9 H9         16.5409   17.3755   18.2760 H       1  lig         0.0379
     10 H10        15.7530   18.1058   16.9044 H       1  lig         0.0379
     11 H11        14.3172   16.2429   17.6257 H       1  lig         0.0288
     12 H12        13.5228   17.7071   18.1614 H       1  lig         0.0288
     13 H13        13.3642   16.3366   20.0562 H       1  lig         0.0492
     14 H14        14.7210   17.3982   20.4271 H       1  lig         0.0492
     15 C1         14.7300   11.3277   19.3171 C.ar    1  lig        -0.0611
     16 C2         13.6409   12.1604   19.0216 C.ar    1  lig        -0.0598
     17 C3         15.9272   11.8492   19.8216 C.ar    1  lig        -0.0520
     18 C4         13.6765   13.5477   19.2040 C.ar    1  lig        -0.0376
     19 C5         15.9765   13.2318   20.0020 C.ar    1  lig         0.0076
     20 C6         14.8489   14.1339   19.6948 C.ar    1  lig         0.0501
     21 C7         19.1436   14.7973   21.3560 C.ar    1  lig        -0.0611
     22 C8         18.6902   16.1267   21.3343 C.ar    1  lig        -0.0598
     23 C9         18.3257   13.7433   20.9256 C.ar    1  lig        -0.0520
     24 C10        17.3992   16.4693   20.8967 C.ar    1  lig        -0.0376
     25 C11        17.0471   14.0750   20.4972 C.ar    1  lig         0.0076
     26 C12        16.5350   15.4633   20.4609 C.ar    1  lig         0.0501
     27 C13        15.6691   19.2468   18.7195 C.2     1  lig         0.3561
     28 C14        15.6511   17.9296   17.9746 C.3     1  lig         0.0508
     29 C15        14.4081   17.0843   18.3139 C.3     1  lig        -0.0247
     30 C16        14.3889   16.5878   19.7713 C.3     1  lig         0.0244
     31 N1         15.2435   15.4111   19.9925 N.pl3   1  lig        -0.3398
     32 O1         16.8200   19.8394   19.0216 O.co2   1  lig        -0.2464
     33 O2         14.6311   19.7928   19.0645 O.co2   1  lig        -0.2464
@<TRIPOS>BOND
     1    27    33    1
     2    27    32    1
     3    27    28    1
     4    28    29    1
     5     9    28    1
     6    10    28    1
     7    29    30    1
     8    11    29    1
     9    12    29    1
    10    30    31    1
    11    13    30    1
    12    14    30    1
    13    26    31    1
    14    20    31    1
    15    24    26   ar
    16    25    26   ar
    17    22    24   ar
    18     8    24    1
    19    23    25   ar
    20    19    25    1
    21    21    23   ar
    22     7    23    1
    23    21    22   ar
    24     5    21    1
    25     6    22    1
    26    19    20   ar
    27    17    19   ar
    28    18    20   ar
    29    16    18   ar
    30     4    18    1
    31    15    17   ar
    32     3    17    1
    33    15    16   ar
    34     1    15    1
    35     2    16    1
@<TRIPOS>SUBSTRUCTURE
     1 lig         1 TEMP              0 ****  ****    0 ROOT


########## Name:		ligand
########## HA_RMSDs:		5.0149
########## HA_RMSDh:		4.9888
########## HA_RMSDm:		2.0198
########## Cluster Size:	12
##########    Grid Score:          -34.305965
##########      Grid_vdw:          -33.655064
##########       Grid_es:           -0.650900
##########    Int_energy:            4.443854

@<TRIPOS>MOLECULE
ligand
 33 35 1 0 0
SMALL
No Charge or Current Charge


@<TRIPOS>ATOM
      1 H1         20.2385   14.6267   21.6207 H       1  lig         0.0618
      2 H2         19.4553   16.9494   21.5107 H       1  lig         0.0618
      3 H3         18.7724   12.7392   20.9116 H       1  lig         0.0624
      4 H4         17.1841   17.5392   20.7248 H       1  lig         0.0638
      5 H5         14.7011   10.2456   19.2349 H       1  lig         0.0618
      6 H6         12.7603   11.6903   18.7939 H       1  lig         0.0618
      7 H7         16.8324   11.2201   20.0807 H       1  lig         0.0624
      8 H8         12.8814   14.1485   18.9394 H       1  lig         0.0638
      9 H9         16.5783   17.7693   18.2760 H       1  lig         0.0379
     10 H10        15.6674   18.5411   17.0072 H       1  lig         0.0379
     11 H11        14.5829   16.3688   17.5672 H       1  lig         0.0288
     12 H12        13.5421   17.6647   18.1141 H       1  lig         0.0288
     13 H13        13.4750   16.3718   20.0113 H       1  lig         0.0492
     14 H14        14.8482   17.4014   20.4107 H       1  lig         0.0492
     15 C1         19.2325   14.8311   21.2653 C.ar    1  lig        -0.0611
     16 C2         18.7779   16.1565   21.2071 C.ar    1  lig        -0.0598
     17 C3         18.4157   13.7650   20.8701 C.ar    1  lig        -0.0520
     18 C4         17.4963   16.4990   20.7609 C.ar    1  lig        -0.0376
     19 C5         17.1336   14.0938   20.4290 C.ar    1  lig         0.0076
     20 C6         16.6255   15.4784   20.3619 C.ar    1  lig         0.0501
     21 C7         14.8020   11.3251   19.3277 C.ar    1  lig        -0.0611
     22 C8         13.7095   12.1491   19.0103 C.ar    1  lig        -0.0598
     23 C9         15.9995   11.8632   19.8194 C.ar    1  lig        -0.0520
     24 C10        13.7602   13.5463   19.1536 C.ar    1  lig        -0.0376
     25 C11        16.0575   13.2437   19.9581 C.ar    1  lig         0.0076
     26 C12        14.9275   14.1430   19.6333 C.ar    1  lig         0.0501
     27 C13        15.4678   19.4351   18.9474 C.2     1  lig         0.3561
     28 C14        15.6144   18.2264   18.0487 C.3     1  lig         0.0508
     29 C15        14.5069   17.1822   18.2901 C.3     1  lig        -0.0247
     30 C16        14.4991   16.6237   19.7249 C.3     1  lig         0.0244
     31 N1         15.3426   15.4292   19.8850 N.pl3   1  lig        -0.3398
     32 O1         16.5386   20.1011   19.3682 O.co2   1  lig        -0.2464
     33 O2         14.3672   19.8236   19.3109 O.co2   1  lig        -0.2464
@<TRIPOS>BOND
     1    27    33    1
     2    27    32    1
     3    27    28    1
     4    28    29    1
     5     9    28    1
     6    10    28    1
     7    29    30    1
     8    11    29    1
     9    12    29    1
    10    30    31    1
    11    13    30    1
    12    14    30    1
    13    26    31    1
    14    20    31    1
    15    24    26   ar
    16    25    26   ar
    17    22    24   ar
    18     8    24    1
    19    23    25   ar
    20    19    25    1
    21    21    23   ar
    22     7    23    1
    23    21    22   ar
    24     5    21    1
    25     6    22    1
    26    19    20   ar
    27    17    19   ar
    28    18    20   ar
    29    16    18   ar
    30     4    18    1
    31    15    17   ar
    32     3    17    1
    33    15    16   ar
    34     1    15    1
    35     2    16    1
@<TRIPOS>SUBSTRUCTURE
     1 lig         1 TEMP              0 ****  ****    0 ROOT


########## Name:		ligand
########## HA_RMSDs:		4.8096
########## HA_RMSDh:		3.1588
########## HA_RMSDm:		0.4293
########## Cluster Size:	25
##########    Grid Score:          -34.262936
##########      Grid_vdw:          -33.922348
##########       Grid_es:           -0.340589
##########    Int_energy:            3.330063

@<TRIPOS>MOLECULE
ligand
 33 35 1 0 0
SMALL
No Charge or Current Charge


@<TRIPOS>ATOM
      1 H1         16.8315   17.7316   14.3803 H       1  lig         0.0618
      2 H2         15.2743   17.1857   16.1963 H       1  lig         0.0618
      3 H3         19.2857   17.8823   14.7913 H       1  lig         0.0624
      4 H4         16.0408   16.7857   18.5149 H       1  lig         0.0638
      5 H5         23.7112   17.8503   17.2448 H       1  lig         0.0618
      6 H6         23.5043   17.4770   19.6668 H       1  lig         0.0618
      7 H7         21.6812   17.9244   15.8022 H       1  lig         0.0624
      8 H8         21.3522   16.9387   20.7427 H       1  lig         0.0638
      9 H9         17.0349   13.6919   21.4340 H       1  lig         0.0379
     10 H10        16.3501   14.9285   20.4157 H       1  lig         0.0379
     11 H11        19.3780   14.7746   20.4656 H       1  lig         0.0288
     12 H12        18.6236   15.1834   21.9906 H       1  lig         0.0288
     13 H13        18.7973   17.3198   21.2157 H       1  lig         0.0492
     14 H14        17.2512   16.9241   20.4685 H       1  lig         0.0492
     15 C1         17.2209   17.5626   15.3803 C.ar    1  lig        -0.0611
     16 C2         16.3341   17.2570   16.4229 C.ar    1  lig        -0.0598
     17 C3         18.6004   17.6502   15.6022 C.ar    1  lig        -0.0520
     18 C4         16.7595   17.0261   17.7362 C.ar    1  lig        -0.0376
     19 C5         19.0357   17.4278   16.9089 C.ar    1  lig         0.0076
     20 C6         18.1259   17.1100   18.0275 C.ar    1  lig         0.0501
     21 C7         22.7355   17.6308   17.6738 C.ar    1  lig        -0.0611
     22 C8         22.6333   17.3527   19.0469 C.ar    1  lig        -0.0598
     23 C9         21.5973   17.6903   16.8576 C.ar    1  lig        -0.0520
     24 C10        21.3977   17.1078   19.6703 C.ar    1  lig        -0.0376
     25 C11        20.3740   17.4438   17.4667 C.ar    1  lig         0.0076
     26 C12        20.2278   17.1471   18.9095 C.ar    1  lig         0.0501
     27 C13        17.4886   13.4275   19.3888 C.2     1  lig         0.3561
     28 C14        17.2476   14.3327   20.5774 C.3     1  lig         0.0508
     29 C15        18.4767   15.2017   20.9076 C.3     1  lig        -0.0247
     30 C16        18.3158   16.6718   20.4792 C.3     1  lig         0.0244
     31 N1         18.8888   16.9539   19.1541 N.pl3   1  lig        -0.3398
     32 O1         18.0135   12.2173   19.5535 O.co2   1  lig        -0.2464
     33 O2         17.2129   13.7872   18.2534 O.co2   1  lig        -0.2464
@<TRIPOS>BOND
     1    27    33    1
     2    27    32    1
     3    27    28    1
     4    28    29    1
     5     9    28    1
     6    10    28    1
     7    29    30    1
     8    11    29    1
     9    12    29    1
    10    30    31    1
    11    13    30    1
    12    14    30    1
    13    26    31    1
    14    20    31    1
    15    24    26   ar
    16    25    26   ar
    17    22    24   ar
    18     8    24    1
    19    23    25   ar
    20    19    25    1
    21    21    23   ar
    22     7    23    1
    23    21    22   ar
    24     5    21    1
    25     6    22    1
    26    19    20   ar
    27    17    19   ar
    28    18    20   ar
    29    16    18   ar
    30     4    18    1
    31    15    17   ar
    32     3    17    1
    33    15    16   ar
    34     1    15    1
    35     2    16    1
@<TRIPOS>SUBSTRUCTURE
     1 lig         1 TEMP              0 ****  ****    0 ROOT


########## Name:		ligand
########## HA_RMSDs:		3.2468
########## HA_RMSDh:		3.1586
########## HA_RMSDm:		0.3460
########## Cluster Size:	37
##########    Grid Score:          -34.193153
##########      Grid_vdw:          -33.937943
##########       Grid_es:           -0.255211
##########    Int_energy:            3.940492

@<TRIPOS>MOLECULE
ligand
 33 35 1 0 0
SMALL
No Charge or Current Charge


@<TRIPOS>ATOM
      1 H1         23.5452   17.6423   17.0093 H       1  lig         0.0618
      2 H2         23.3897   17.1374   19.4054 H       1  lig         0.0618
      3 H3         21.4979   17.8463   15.6015 H       1  lig         0.0624
      4 H4         21.2195   16.7800   20.5394 H       1  lig         0.0638
      5 H5         16.6148   17.8435   14.2747 H       1  lig         0.0618
      6 H6         15.0872   17.2267   16.1006 H       1  lig         0.0618
      7 H7         19.0758   17.9105   14.6577 H       1  lig         0.0624
      8 H8         15.8652   16.8738   18.4134 H       1  lig         0.0638
      9 H9         17.4601   13.4763   21.4744 H       1  lig         0.0379
     10 H10        16.4460   14.6718   20.7142 H       1  lig         0.0379
     11 H11        19.4497   14.8125   20.1951 H       1  lig         0.0288
     12 H12        18.8994   15.1941   21.8117 H       1  lig         0.0288
     13 H13        18.6230   17.3080   21.0757 H       1  lig         0.0492
     14 H14        17.1343   16.7071   20.3489 H       1  lig         0.0492
     15 C1         22.5668   17.4968   17.4584 C.ar    1  lig        -0.0611
     16 C2         22.4732   17.2014   18.8261 C.ar    1  lig        -0.0598
     17 C3         21.4225   17.6123   16.6602 C.ar    1  lig        -0.0520
     18 C4         21.2498   17.0010   19.4760 C.ar    1  lig        -0.0376
     19 C5         20.1974   17.4088   17.2958 C.ar    1  lig         0.0076
     20 C6         20.0678   17.0911   18.7319 C.ar    1  lig         0.0501
     21 C7         17.0102   17.6835   15.2758 C.ar    1  lig        -0.0611
     22 C8         16.1251   17.3969   16.3284 C.ar    1  lig        -0.0598
     23 C9         18.3971   17.7076   15.4785 C.ar    1  lig        -0.0520
     24 C10        16.5757   17.1342   17.6335 C.ar    1  lig        -0.0376
     25 C11        18.8480   17.4542   16.7672 C.ar    1  lig         0.0076
     26 C12        17.9459   17.1493   17.9004 C.ar    1  lig         0.0501
     27 C13        17.4822   13.3634   19.3660 C.2     1  lig         0.3561
     28 C14        17.4138   14.1772   20.6400 C.3     1  lig         0.0508
     29 C15        18.5889   15.1665   20.7641 C.3     1  lig        -0.0247
     30 C16        18.2233   16.6018   20.3436 C.3     1  lig         0.0244
     31 N1         18.7334   16.9617   19.0116 N.pl3   1  lig        -0.3398
     32 O1         17.6347   12.0435   19.4118 O.co2   1  lig        -0.2464
     33 O2         17.4046   13.8974   18.2690 O.co2   1  lig        -0.2464
@<TRIPOS>BOND
     1    27    33    1
     2    27    32    1
     3    27    28    1
     4    28    29    1
     5     9    28    1
     6    10    28    1
     7    29    30    1
     8    11    29    1
     9    12    29    1
    10    30    31    1
    11    13    30    1
    12    14    30    1
    13    26    31    1
    14    20    31    1
    15    24    26   ar
    16    25    26   ar
    17    22    24   ar
    18     8    24    1
    19    23    25   ar
    20    19    25    1
    21    21    23   ar
    22     7    23    1
    23    21    22   ar
    24     5    21    1
    25     6    22    1
    26    19    20   ar
    27    17    19   ar
    28    18    20   ar
    29    16    18   ar
    30     4    18    1
    31    15    17   ar
    32     3    17    1
    33    15    16   ar
    34     1    15    1
    35     2    16    1
@<TRIPOS>SUBSTRUCTURE
     1 lig         1 TEMP              0 ****  ****    0 ROOT


########## Name:		ligand
########## HA_RMSDs:		5.2678
########## HA_RMSDh:		3.9210
########## HA_RMSDm:		0.6448
########## Cluster Size:	10
##########    Grid Score:          -33.950176
##########      Grid_vdw:          -33.642632
##########       Grid_es:           -0.307543
##########    Int_energy:            2.885366

@<TRIPOS>MOLECULE
ligand
 33 35 1 0 0
SMALL
No Charge or Current Charge


@<TRIPOS>ATOM
      1 H1         18.5305   17.3255   14.3501 H       1  lig         0.0618
      2 H2         16.4921   15.9784   14.5752 H       1  lig         0.0618
      3 H3         20.0337   17.7208   16.2992 H       1  lig         0.0624
      4 H4         15.8084   14.9715   16.7298 H       1  lig         0.0638
      5 H5         21.8273   17.5925   21.0291 H       1  lig         0.0618
      6 H6         20.3604   16.4227   22.6189 H       1  lig         0.0618
      7 H7         21.1733   17.8101   18.6348 H       1  lig         0.0624
      8 H8         18.3236   15.2295   21.9071 H       1  lig         0.0638
      9 H9         15.7668   11.2092   20.3474 H       1  lig         0.0379
     10 H10        15.5508   12.4614   21.5392 H       1  lig         0.0379
     11 H11        16.8053   12.6770   18.7299 H       1  lig         0.0288
     12 H12        17.5840   12.9462   20.2736 H       1  lig         0.0288
     13 H13        16.1178   14.9565   20.6667 H       1  lig         0.0492
     14 H14        15.4551   14.7443   19.0476 H       1  lig         0.0492
     15 C1         18.2775   16.9038   15.3188 C.ar    1  lig        -0.0611
     16 C2         17.1100   16.1388   15.4540 C.ar    1  lig        -0.0598
     17 C3         19.1269   17.1317   16.4081 C.ar    1  lig        -0.0520
     18 C4         16.7177   15.5631   16.6680 C.ar    1  lig        -0.0376
     19 C5         18.7430   16.5676   17.6250 C.ar    1  lig         0.0076
     20 C6         17.5175   15.7628   17.7991 C.ar    1  lig         0.0501
     21 C7         20.9308   17.0937   20.6667 C.ar    1  lig        -0.0611
     22 C8         20.1322   16.3709   21.5685 C.ar    1  lig        -0.0598
     23 C9         20.5625   17.2348   19.3214 C.ar    1  lig        -0.0520
     24 C10        18.9381   15.7437   21.1732 C.ar    1  lig        -0.0376
     25 C11        19.3864   16.6127   18.9236 C.ar    1  lig         0.0076
     26 C12        18.5204   15.8429   19.8448 C.ar    1  lig         0.0501
     27 C13        14.1749   12.5201   19.8939 C.2     1  lig         0.3561
     28 C14        15.5536   12.2722   20.4664 C.3     1  lig         0.0508
     29 C15        16.6436   13.0767   19.7319 C.3     1  lig        -0.0247
     30 C16        16.3450   14.5856   19.6642 C.3     1  lig         0.0244
     31 N1         17.4585   15.3711   19.1101 N.pl3   1  lig        -0.3398
     32 O1         13.6948   11.7488   18.9234 O.co2   1  lig        -0.2464
     33 O2         13.4745   13.4343   20.3040 O.co2   1  lig        -0.2464
@<TRIPOS>BOND
     1    27    33    1
     2    27    32    1
     3    27    28    1
     4    28    29    1
     5     9    28    1
     6    10    28    1
     7    29    30    1
     8    11    29    1
     9    12    29    1
    10    30    31    1
    11    13    30    1
    12    14    30    1
    13    26    31    1
    14    20    31    1
    15    24    26   ar
    16    25    26   ar
    17    22    24   ar
    18     8    24    1
    19    23    25   ar
    20    19    25    1
    21    21    23   ar
    22     7    23    1
    23    21    22   ar
    24     5    21    1
    25     6    22    1
    26    19    20   ar
    27    17    19   ar
    28    18    20   ar
    29    16    18   ar
    30     4    18    1
    31    15    17   ar
    32     3    17    1
    33    15    16   ar
    34     1    15    1
    35     2    16    1
@<TRIPOS>SUBSTRUCTURE
     1 lig         1 TEMP              0 ****  ****    0 ROOT


########## Name:		ligand
########## HA_RMSDs:		1.8938
########## HA_RMSDh:		1.7652
########## HA_RMSDm:		0.5083
########## Cluster Size:	18
##########    Grid Score:          -33.765202
##########      Grid_vdw:          -32.717789
##########       Grid_es:           -1.047412
##########    Int_energy:            3.157044

@<TRIPOS>MOLECULE
ligand
 33 35 1 0 0
SMALL
No Charge or Current Charge


@<TRIPOS>ATOM
      1 H1         21.6181   16.5351   20.2107 H       1  lig         0.0618
      2 H2         19.6985   15.6281   21.4408 H       1  lig         0.0618
      3 H3         21.3481   17.4811   17.9200 H       1  lig         0.0624
      4 H4         17.4197   15.5774   20.4775 H       1  lig         0.0638
      5 H5         19.1631   18.8791   13.5753 H       1  lig         0.0618
      6 H6         16.7782   18.2972   13.4278 H       1  lig         0.0618
      7 H7         20.4811   18.2923   15.6066 H       1  lig         0.0624
      8 H8         15.5327   17.3322   15.3242 H       1  lig         0.0638
      9 H9         13.9278   17.9773   20.2986 H       1  lig         0.0379
     10 H10        15.6316   17.6135   20.2888 H       1  lig         0.0379
     11 H11        14.6074   17.9759   17.5265 H       1  lig         0.0288
     12 H12        13.6007   16.8474   18.4069 H       1  lig         0.0288
     13 H13        15.2468   15.4963   17.3451 H       1  lig         0.0492
     14 H14        15.6754   15.5435   19.0538 H       1  lig         0.0492
     15 C1         20.6378   16.5392   19.7424 C.ar    1  lig        -0.0611
     16 C2         19.5390   16.0157   20.4389 C.ar    1  lig        -0.0598
     17 C3         20.4956   17.0715   18.4554 C.ar    1  lig        -0.0520
     18 C4         18.2463   15.9861   19.9028 C.ar    1  lig        -0.0376
     19 C5         19.2126   17.0421   17.9082 C.ar    1  lig         0.0076
     20 C6         18.0383   16.4927   18.6147 C.ar    1  lig         0.0501
     21 C7         18.6622   18.4408   14.4362 C.ar    1  lig        -0.0611
     22 C8         17.2850   18.1720   14.3689 C.ar    1  lig        -0.0598
     23 C9         19.4148   18.0996   15.5686 C.ar    1  lig        -0.0520
     24 C10        16.5892   17.5643   15.4280 C.ar    1  lig        -0.0376
     25 C11        18.7318   17.5037   16.6206 C.ar    1  lig         0.0076
     26 C12        17.2822   17.2060   16.5857 C.ar    1  lig         0.0501
     27 C13        15.1010   19.5218   19.4639 C.2     1  lig         0.3561
     28 C14        14.8315   18.0503   19.6923 C.3     1  lig         0.0508
     29 C15        14.6005   17.2879   18.3731 C.3     1  lig        -0.0247
     30 C16        15.6096   16.1478   18.1440 C.3     1  lig         0.0244
     31 N1         16.9539   16.6282   17.7892 N.pl3   1  lig        -0.3398
     32 O1         14.1024   20.3637   19.2167 O.co2   1  lig        -0.2464
     33 O2         16.2383   19.9692   19.4957 O.co2   1  lig        -0.2464
@<TRIPOS>BOND
     1    27    33    1
     2    27    32    1
     3    27    28    1
     4    28    29    1
     5     9    28    1
     6    10    28    1
     7    29    30    1
     8    11    29    1
     9    12    29    1
    10    30    31    1
    11    13    30    1
    12    14    30    1
    13    26    31    1
    14    20    31    1
    15    24    26   ar
    16    25    26   ar
    17    22    24   ar
    18     8    24    1
    19    23    25   ar
    20    19    25    1
    21    21    23   ar
    22     7    23    1
    23    21    22   ar
    24     5    21    1
    25     6    22    1
    26    19    20   ar
    27    17    19   ar
    28    18    20   ar
    29    16    18   ar
    30     4    18    1
    31    15    17   ar
    32     3    17    1
    33    15    16   ar
    34     1    15    1
    35     2    16    1
@<TRIPOS>SUBSTRUCTURE
     1 lig         1 TEMP              0 ****  ****    0 ROOT


########## Name:		ligand
########## HA_RMSDs:		5.8051
########## HA_RMSDh:		5.5285
########## HA_RMSDm:		3.6069
########## Cluster Size:	7
##########    Grid Score:          -33.701828
##########      Grid_vdw:          -34.123875
##########       Grid_es:            0.422047
##########    Int_energy:            2.611752

@<TRIPOS>MOLECULE
ligand
 33 35 1 0 0
SMALL
No Charge or Current Charge


@<TRIPOS>ATOM
      1 H1         14.5084   12.2111   19.2417 H       1  lig         0.0618
      2 H2         16.7308   11.4980   19.9984 H       1  lig         0.0618
      3 H3         13.9174   14.6277   19.0819 H       1  lig         0.0624
      4 H4         18.4799   13.1175   20.6630 H       1  lig         0.0638
      5 H5         14.3388   19.6608   19.3910 H       1  lig         0.0618
      6 H6         16.4817   20.4251   20.3246 H       1  lig         0.0618
      7 H7         13.8684   17.2269   19.1412 H       1  lig         0.0624
      8 H8         18.3286   18.8746   20.8381 H       1  lig         0.0638
      9 H9         19.8204   17.5902   18.6988 H       1  lig         0.0379
     10 H10        20.6593   18.1381   20.1240 H       1  lig         0.0379
     11 H11        21.2969   15.5286   20.3796 H       1  lig         0.0288
     12 H12        20.0281   15.2960   19.1972 H       1  lig         0.0288
     13 H13        19.4270   16.8675   21.7160 H       1  lig         0.0492
     14 H14        19.4213   15.1054   21.7322 H       1  lig         0.0492
     15 C1         15.2410   12.9636   19.5195 C.ar    1  lig        -0.0611
     16 C2         16.5103   12.5608   19.9591 C.ar    1  lig        -0.0598
     17 C3         14.9002   14.3184   19.4276 C.ar    1  lig        -0.0520
     18 C4         17.5062   13.4701   20.3337 C.ar    1  lig        -0.0376
     19 C5         15.8831   15.2341   19.8041 C.ar    1  lig         0.0076
     20 C6         17.2255   14.8401   20.2758 C.ar    1  lig         0.0501
     21 C7         15.1174   18.9345   19.6151 C.ar    1  lig        -0.0611
     22 C8         16.3630   19.3826   20.0854 C.ar    1  lig        -0.0598
     23 C9         14.8383   17.5667   19.4866 C.ar    1  lig        -0.0520
     24 C10        17.3933   18.4937   20.4371 C.ar    1  lig        -0.0376
     25 C11        15.8544   16.6836   19.8274 C.ar    1  lig         0.0076
     26 C12        17.1786   17.1188   20.3255 C.ar    1  lig         0.0501
     27 C13        21.9164   17.3749   18.5618 C.2     1  lig         0.3561
     28 C14        20.6406   17.3471   19.3753 C.3     1  lig         0.0508
     29 C15        20.3729   15.9610   19.9932 C.3     1  lig        -0.0247
     30 C16        19.2925   15.9818   21.0901 C.3     1  lig         0.0244
     31 N1         17.9231   15.9856   20.5527 N.pl3   1  lig        -0.3398
     32 O1         21.8925   17.1344   17.2546 O.co2   1  lig        -0.2464
     33 O2         22.9954   17.6128   19.0850 O.co2   1  lig        -0.2464
@<TRIPOS>BOND
     1    27    33    1
     2    27    32    1
     3    27    28    1
     4    28    29    1
     5     9    28    1
     6    10    28    1
     7    29    30    1
     8    11    29    1
     9    12    29    1
    10    30    31    1
    11    13    30    1
    12    14    30    1
    13    26    31    1
    14    20    31    1
    15    24    26   ar
    16    25    26   ar
    17    22    24   ar
    18     8    24    1
    19    23    25   ar
    20    19    25    1
    21    21    23   ar
    22     7    23    1
    23    21    22   ar
    24     5    21    1
    25     6    22    1
    26    19    20   ar
    27    17    19   ar
    28    18    20   ar
    29    16    18   ar
    30     4    18    1
    31    15    17   ar
    32     3    17    1
    33    15    16   ar
    34     1    15    1
    35     2    16    1
@<TRIPOS>SUBSTRUCTURE
     1 lig         1 TEMP              0 ****  ****    0 ROOT


########## Name:		ligand
########## HA_RMSDs:		3.9732
########## HA_RMSDh:		3.9015
########## HA_RMSDm:		0.5124
########## Cluster Size:	13
##########    Grid Score:          -33.628807
##########      Grid_vdw:          -33.473827
##########       Grid_es:           -0.154978
##########    Int_energy:            2.567595

@<TRIPOS>MOLECULE
ligand
 33 35 1 0 0
SMALL
No Charge or Current Charge


@<TRIPOS>ATOM
      1 H1         21.8441   17.5659   21.1129 H       1  lig         0.0618
      2 H2         20.4184   16.2991   22.6566 H       1  lig         0.0618
      3 H3         21.1851   17.8988   18.7318 H       1  lig         0.0624
      4 H4         18.2854   15.2706   21.9382 H       1  lig         0.0638
      5 H5         18.5191   17.5818   14.4426 H       1  lig         0.0618
      6 H6         16.5028   16.1857   14.6243 H       1  lig         0.0618
      7 H7         20.0177   17.8949   16.4082 H       1  lig         0.0624
      8 H8         15.7451   15.2295   16.7669 H       1  lig         0.0638
      9 H9         15.9424   11.3000   20.3885 H       1  lig         0.0379
     10 H10        15.6064   12.5697   21.5331 H       1  lig         0.0379
     11 H11        16.7986   12.8572   18.6948 H       1  lig         0.0288
     12 H12        17.6393   13.0896   20.2118 H       1  lig         0.0288
     13 H13        16.1233   15.0335   20.7507 H       1  lig         0.0492
     14 H14        15.4099   14.8684   19.1478 H       1  lig         0.0492
     15 C1         20.9157   17.1368   20.7466 C.ar    1  lig        -0.0611
     16 C2         20.1009   16.4062   21.6234 C.ar    1  lig        -0.0598
     17 C3         20.5540   17.3280   19.4078 C.ar    1  lig        -0.0520
     18 C4         18.8916   15.8240   21.2262 C.ar    1  lig        -0.0376
     19 C5         19.3533   16.7471   18.9988 C.ar    1  lig         0.0076
     20 C6         18.4777   15.9683   19.8969 C.ar    1  lig         0.0501
     21 C7         18.2354   17.1701   15.4090 C.ar    1  lig        -0.0611
     22 C8         17.0472   16.4290   15.5202 C.ar    1  lig        -0.0598
     23 C9         19.0925   17.3380   16.5055 C.ar    1  lig        -0.0520
     24 C10        16.6487   15.8318   16.7285 C.ar    1  lig        -0.0376
     25 C11        18.7015   16.7548   17.7036 C.ar    1  lig         0.0076
     26 C12        17.4572   15.9681   17.8584 C.ar    1  lig         0.0501
     27 C13        14.2548   12.4586   19.8705 C.2     1  lig         0.3561
     28 C14        15.6407   12.3451   20.4677 C.3     1  lig         0.0508
     29 C15        16.6715   13.2118   19.7186 C.3     1  lig        -0.0247
     30 C16        16.3256   14.7121   19.7259 C.3     1  lig         0.0244
     31 N1         17.3946   15.5546   19.1680 N.pl3   1  lig        -0.3398
     32 O1         13.8724   11.6512   18.8861 O.co2   1  lig        -0.2464
     33 O2         13.4589   13.2947   20.2730 O.co2   1  lig        -0.2464
@<TRIPOS>BOND
     1    27    33    1
     2    27    32    1
     3    27    28    1
     4    28    29    1
     5     9    28    1
     6    10    28    1
     7    29    30    1
     8    11    29    1
     9    12    29    1
    10    30    31    1
    11    13    30    1
    12    14    30    1
    13    26    31    1
    14    20    31    1
    15    24    26   ar
    16    25    26   ar
    17    22    24   ar
    18     8    24    1
    19    23    25   ar
    20    19    25    1
    21    21    23   ar
    22     7    23    1
    23    21    22   ar
    24     5    21    1
    25     6    22    1
    26    19    20   ar
    27    17    19   ar
    28    18    20   ar
    29    16    18   ar
    30     4    18    1
    31    15    17   ar
    32     3    17    1
    33    15    16   ar
    34     1    15    1
    35     2    16    1
@<TRIPOS>SUBSTRUCTURE
     1 lig         1 TEMP              0 ****  ****    0 ROOT


########## Name:		ligand
########## HA_RMSDs:		5.8405
########## HA_RMSDh:		5.4911
########## HA_RMSDm:		2.9535
########## Cluster Size:	2
##########    Grid Score:          -33.202438
##########      Grid_vdw:          -33.847542
##########       Grid_es:            0.645105
##########    Int_energy:            2.246620

@<TRIPOS>MOLECULE
ligand
 33 35 1 0 0
SMALL
No Charge or Current Charge


@<TRIPOS>ATOM
      1 H1         14.3281   20.1064   19.3613 H       1  lig         0.0618
      2 H2         16.5546   20.6892   20.2119 H       1  lig         0.0618
      3 H3         13.6598   17.7279   19.0280 H       1  lig         0.0624
      4 H4         18.2503   18.9705   20.7543 H       1  lig         0.0638
      5 H5         13.9494   12.6780   18.8869 H       1  lig         0.0618
      6 H6         16.1590   11.7898   19.5005 H       1  lig         0.0618
      7 H7         13.5402   15.1355   18.8633 H       1  lig         0.0624
      8 H8         17.9800   13.2309   20.3288 H       1  lig         0.0638
      9 H9         20.3391   18.3763   19.9198 H       1  lig         0.0379
     10 H10        21.4686   17.4501   20.8694 H       1  lig         0.0379
     11 H11        20.6251   15.3492   19.5674 H       1  lig         0.0288
     12 H12        19.4747   16.4053   18.7780 H       1  lig         0.0288
     13 H13        19.1787   16.8258   21.6095 H       1  lig         0.0492
     14 H14        19.1865   15.0889   21.3115 H       1  lig         0.0492
     15 C1         15.0346   19.3124   19.5865 C.ar    1  lig        -0.0611
     16 C2         16.3107   19.6409   20.0664 C.ar    1  lig        -0.0598
     17 C3         14.6512   17.9796   19.3954 C.ar    1  lig        -0.0520
     18 C4         17.2745   18.6751   20.3787 C.ar    1  lig        -0.0376
     19 C5         15.6058   17.0082   19.6977 C.ar    1  lig         0.0076
     20 C6         16.9583   17.3235   20.1989 C.ar    1  lig         0.0501
     21 C7         14.7253   13.3581   19.2326 C.ar    1  lig        -0.0611
     22 C8         15.9635   12.8382   19.6450 C.ar    1  lig        -0.0598
     23 C9         14.4915   14.7399   19.2009 C.ar    1  lig        -0.0520
     24 C10        17.0219   13.6658   20.0575 C.ar    1  lig        -0.0376
     25 C11        15.5317   15.5626   19.6125 C.ar    1  lig         0.0076
     26 C12        16.8488   15.0510   20.0538 C.ar    1  lig         0.0501
     27 C13        21.9583   17.6303   18.7883 C.2     1  lig         0.3561
     28 C14        20.9539   17.4755   19.9097 C.3     1  lig         0.0508
     29 C15        20.0344   16.2559   19.7049 C.3     1  lig        -0.0247
     30 C16        19.0162   16.0632   20.8437 C.3     1  lig         0.0244
     31 N1         17.6192   16.1392   20.3892 N.pl3   1  lig        -0.3398
     32 O1         21.6450   18.3033   17.6854 O.co2   1  lig        -0.2464
     33 O2         23.0747   17.1384   18.8664 O.co2   1  lig        -0.2464
@<TRIPOS>BOND
     1    27    33    1
     2    27    32    1
     3    27    28    1
     4    28    29    1
     5     9    28    1
     6    10    28    1
     7    29    30    1
     8    11    29    1
     9    12    29    1
    10    30    31    1
    11    13    30    1
    12    14    30    1
    13    26    31    1
    14    20    31    1
    15    24    26   ar
    16    25    26   ar
    17    22    24   ar
    18     8    24    1
    19    23    25   ar
    20    19    25    1
    21    21    23   ar
    22     7    23    1
    23    21    22   ar
    24     5    21    1
    25     6    22    1
    26    19    20   ar
    27    17    19   ar
    28    18    20   ar
    29    16    18   ar
    30     4    18    1
    31    15    17   ar
    32     3    17    1
    33    15    16   ar
    34     1    15    1
    35     2    16    1
@<TRIPOS>SUBSTRUCTURE
     1 lig         1 TEMP              0 ****  ****    0 ROOT


########## Name:		ligand
########## HA_RMSDs:		3.8434
########## HA_RMSDh:		1.7990
########## HA_RMSDm:		0.4237
########## Cluster Size:	15
##########    Grid Score:          -33.156849
##########      Grid_vdw:          -32.524490
##########       Grid_es:           -0.632360
##########    Int_energy:            3.353921

@<TRIPOS>MOLECULE
ligand
 33 35 1 0 0
SMALL
No Charge or Current Charge


@<TRIPOS>ATOM
      1 H1         19.1558   18.8013   13.5861 H       1  lig         0.0618
      2 H2         16.7828   18.2033   13.4078 H       1  lig         0.0618
      3 H3         20.4466   18.3386   15.6680 H       1  lig         0.0624
      4 H4         15.5461   17.1448   15.2716 H       1  lig         0.0638
      5 H5         21.4908   16.8332   20.3848 H       1  lig         0.0618
      6 H6         19.5382   15.9812   21.6134 H       1  lig         0.0618
      7 H7         21.2494   17.6510   18.0438 H       1  lig         0.0624
      8 H8         17.3346   15.6801   20.5492 H       1  lig         0.0638
      9 H9         13.8224   18.0309   20.2068 H       1  lig         0.0379
     10 H10        15.4567   17.4430   20.3434 H       1  lig         0.0379
     11 H11        14.6444   18.0070   17.5143 H       1  lig         0.0288
     12 H12        13.5629   16.8843   18.3092 H       1  lig         0.0288
     13 H13        15.1896   15.4997   17.2788 H       1  lig         0.0492
     14 H14        15.5807   15.4955   18.9971 H       1  lig         0.0492
     15 C1         18.6608   18.3358   14.4337 C.ar    1  lig        -0.0611
     16 C2         17.3029   17.9984   14.3390 C.ar    1  lig        -0.0598
     17 C3         19.3932   18.0805   15.5992 C.ar    1  lig        -0.0520
     18 C4         16.5968   17.3966   15.3870 C.ar    1  lig        -0.0376
     19 C5         18.6983   17.4862   16.6530 C.ar    1  lig         0.0076
     20 C6         17.2684   17.1250   16.5847 C.ar    1  lig         0.0501
     21 C7         20.5354   16.7332   19.8736 C.ar    1  lig        -0.0611
     22 C8         19.4404   16.1837   20.5609 C.ar    1  lig        -0.0598
     23 C9         20.4051   17.2104   18.5620 C.ar    1  lig        -0.0520
     24 C10        18.1689   16.0706   19.9729 C.ar    1  lig        -0.0376
     25 C11        19.1524   17.0964   17.9737 C.ar    1  lig         0.0076
     26 C12        17.9766   16.5230   18.6663 C.ar    1  lig         0.0501
     27 C13        15.2623   19.4180   19.5277 C.2     1  lig         0.3561
     28 C14        14.7812   17.9922   19.6885 C.3     1  lig         0.0508
     29 C15        14.5782   17.2886   18.3325 C.3     1  lig        -0.0247
     30 C16        15.5550   16.1214   18.1000 C.3     1  lig         0.0244
     31 N1         16.9218   16.5652   17.7855 N.pl3   1  lig        -0.3398
     32 O1         14.3956   20.4249   19.4815 O.co2   1  lig        -0.2464
     33 O2         16.4532   19.6769   19.4316 O.co2   1  lig        -0.2464
@<TRIPOS>BOND
     1    27    33    1
     2    27    32    1
     3    27    28    1
     4    28    29    1
     5     9    28    1
     6    10    28    1
     7    29    30    1
     8    11    29    1
     9    12    29    1
    10    30    31    1
    11    13    30    1
    12    14    30    1
    13    26    31    1
    14    20    31    1
    15    24    26   ar
    16    25    26   ar
    17    22    24   ar
    18     8    24    1
    19    23    25   ar
    20    19    25    1
    21    21    23   ar
    22     7    23    1
    23    21    22   ar
    24     5    21    1
    25     6    22    1
    26    19    20   ar
    27    17    19   ar
    28    18    20   ar
    29    16    18   ar
    30     4    18    1
    31    15    17   ar
    32     3    17    1
    33    15    16   ar
    34     1    15    1
    35     2    16    1
@<TRIPOS>SUBSTRUCTURE
     1 lig         1 TEMP              0 ****  ****    0 ROOT


########## Name:		ligand
########## HA_RMSDs:		5.9075
########## HA_RMSDh:		4.7159
########## HA_RMSDm:		3.1083
########## Cluster Size:	13
##########    Grid Score:          -32.051807
##########      Grid_vdw:          -32.101727
##########       Grid_es:            0.049921
##########    Int_energy:            3.269481

@<TRIPOS>MOLECULE
ligand
 33 35 1 0 0
SMALL
No Charge or Current Charge


@<TRIPOS>ATOM
      1 H1         13.6887   12.2640   20.0412 H       1  lig         0.0618
      2 H2         12.5682   14.1067   18.8711 H       1  lig         0.0618
      3 H3         15.9697   12.5498   21.0058 H       1  lig         0.0624
      4 H4         13.6375   16.3170   18.5632 H       1  lig         0.0638
      5 H5         20.3820   14.7007   22.2347 H       1  lig         0.0618
      6 H6         20.6524   16.9852   21.3654 H       1  lig         0.0618
      7 H7         18.3040   13.4096   21.7632 H       1  lig         0.0624
      8 H8         18.8363   18.1818   20.2041 H       1  lig         0.0638
      9 H9         16.0496   16.3972   16.6541 H       1  lig         0.0379
     10 H10        14.9025   17.6931   16.4542 H       1  lig         0.0379
     11 H11        16.8315   19.2737   17.3285 H       1  lig         0.0288
     12 H12        17.7206   17.8042   17.6630 H       1  lig         0.0288
     13 H13        14.9589   18.1894   18.8547 H       1  lig         0.0492
     14 H14        16.3861   18.8919   19.6130 H       1  lig         0.0492
     15 C1         14.2020   13.2156   19.9358 C.ar    1  lig        -0.0611
     16 C2         13.5684   14.2697   19.2620 C.ar    1  lig        -0.0598
     17 C3         15.4831   13.3669   20.4798 C.ar    1  lig        -0.0520
     18 C4         14.1646   15.5238   19.0862 C.ar    1  lig        -0.0376
     19 C5         16.0900   14.6110   20.3056 C.ar    1  lig         0.0076
     20 C6         15.4504   15.7371   19.5964 C.ar    1  lig         0.0501
     21 C7         19.5546   15.1799   21.7153 C.ar    1  lig        -0.0611
     22 C8         19.6915   16.5084   21.2796 C.ar    1  lig        -0.0598
     23 C9         18.3956   14.4407   21.4407 C.ar    1  lig        -0.0520
     24 C10        18.6786   17.1683   20.5627 C.ar    1  lig        -0.0376
     25 C11        17.3890   15.0891   20.7374 C.ar    1  lig         0.0076
     26 C12        17.4974   16.4871   20.2631 C.ar    1  lig         0.0501
     27 C13        16.5685   17.7324   15.1028 C.2     1  lig         0.3561
     28 C14        15.9683   17.4685   16.4667 C.3     1  lig         0.0508
     29 C15        16.7129   18.2206   17.5870 C.3     1  lig        -0.0247
     30 C16        16.0407   18.0806   18.9652 C.3     1  lig         0.0244
     31 N1         16.3226   16.7927   19.6178 N.pl3   1  lig        -0.3398
     32 O1         16.5666   16.7882   14.1670 O.co2   1  lig        -0.2464
     33 O2         17.0717   18.8128   14.8312 O.co2   1  lig        -0.2464
@<TRIPOS>BOND
     1    27    33    1
     2    27    32    1
     3    27    28    1
     4    28    29    1
     5     9    28    1
     6    10    28    1
     7    29    30    1
     8    11    29    1
     9    12    29    1
    10    30    31    1
    11    13    30    1
    12    14    30    1
    13    26    31    1
    14    20    31    1
    15    24    26   ar
    16    25    26   ar
    17    22    24   ar
    18     8    24    1
    19    23    25   ar
    20    19    25    1
    21    21    23   ar
    22     7    23    1
    23    21    22   ar
    24     5    21    1
    25     6    22    1
    26    19    20   ar
    27    17    19   ar
    28    18    20   ar
    29    16    18   ar
    30     4    18    1
    31    15    17   ar
    32     3    17    1
    33    15    16   ar
    34     1    15    1
    35     2    16    1
@<TRIPOS>SUBSTRUCTURE
     1 lig         1 TEMP              0 ****  ****    0 ROOT


########## Name:		ligand
########## HA_RMSDs:		4.5263
########## HA_RMSDh:		4.0547
########## HA_RMSDm:		0.3504
########## Cluster Size:	9
##########    Grid Score:          -32.030128
##########      Grid_vdw:          -32.422691
##########       Grid_es:            0.392562
##########    Int_energy:            3.394562

@<TRIPOS>MOLECULE
ligand
 33 35 1 0 0
SMALL
No Charge or Current Charge


@<TRIPOS>ATOM
      1 H1         23.1609   16.8133   18.7150 H       1  lig         0.0618
      2 H2         22.3302   18.1338   16.8211 H       1  lig         0.0618
      3 H3         21.5983   15.5283   20.1717 H       1  lig         0.0624
      4 H4         19.9214   18.2840   16.2741 H       1  lig         0.0638
      5 H5         17.2810   13.6732   22.0490 H       1  lig         0.0618
      6 H6         15.2641   14.4947   20.9064 H       1  lig         0.0618
      7 H7         19.5393   14.4407   21.3290 H       1  lig         0.0624
      8 H8         15.3702   15.9072   18.8884 H       1  lig         0.0638
      9 H9         18.5573   16.6116   14.9032 H       1  lig         0.0379
     10 H10        17.3692   15.8032   13.9181 H       1  lig         0.0379
     11 H11        16.4873   15.6005   16.1687 H       1  lig         0.0288
     12 H12        15.6106   16.9633   15.5083 H       1  lig         0.0288
     13 H13        16.2229   17.9350   17.4896 H       1  lig         0.0492
     14 H14        17.6237   18.3897   16.5219 H       1  lig         0.0492
     15 C1         22.0931   16.8434   18.5169 C.ar    1  lig        -0.0611
     16 C2         21.6130   17.6022   17.4397 C.ar    1  lig        -0.0598
     17 C3         21.2229   16.1195   19.3406 C.ar    1  lig        -0.0520
     18 C4         20.2528   17.6899   17.1214 C.ar    1  lig        -0.0376
     19 C5         19.8639   16.2041   19.0366 C.ar    1  lig         0.0076
     20 C6         19.3285   16.9987   17.9133 C.ar    1  lig         0.0501
     21 C7         17.3812   14.3072   21.1703 C.ar    1  lig        -0.0611
     22 C8         16.2276   14.7188   20.4825 C.ar    1  lig        -0.0598
     23 C9         18.6545   14.7467   20.7821 C.ar    1  lig        -0.0520
     24 C10        16.2862   15.5750   19.3695 C.ar    1  lig        -0.0376
     25 C11        18.7193   15.5887   19.6797 C.ar    1  lig         0.0076
     26 C12        17.5262   16.0426   18.9304 C.ar    1  lig         0.0501
     27 C13        17.3631   17.9445   13.7824 C.2     1  lig         0.3561
     28 C14        17.5197   16.6622   14.5708 C.3     1  lig         0.0508
     29 C15        16.6048   16.6241   15.8104 C.3     1  lig        -0.0247
     30 C16        17.0874   17.5383   16.9515 C.3     1  lig         0.0244
     31 N1         17.9670   16.8514   17.9099 N.pl3   1  lig        -0.3398
     32 O1         18.1294   18.9990   14.0437 O.co2   1  lig        -0.2464
     33 O2         16.5290   18.0433   12.8942 O.co2   1  lig        -0.2464
@<TRIPOS>BOND
     1    27    33    1
     2    27    32    1
     3    27    28    1
     4    28    29    1
     5     9    28    1
     6    10    28    1
     7    29    30    1
     8    11    29    1
     9    12    29    1
    10    30    31    1
    11    13    30    1
    12    14    30    1
    13    26    31    1
    14    20    31    1
    15    24    26   ar
    16    25    26   ar
    17    22    24   ar
    18     8    24    1
    19    23    25   ar
    20    19    25    1
    21    21    23   ar
    22     7    23    1
    23    21    22   ar
    24     5    21    1
    25     6    22    1
    26    19    20   ar
    27    17    19   ar
    28    18    20   ar
    29    16    18   ar
    30     4    18    1
    31    15    17   ar
    32     3    17    1
    33    15    16   ar
    34     1    15    1
    35     2    16    1
@<TRIPOS>SUBSTRUCTURE
     1 lig         1 TEMP              0 ****  ****    0 ROOT


########## Name:		ligand
########## HA_RMSDs:		6.4204
########## HA_RMSDh:		5.4081
########## HA_RMSDm:		2.1599
########## Cluster Size:	5
##########    Grid Score:          -32.008282
##########      Grid_vdw:          -31.755701
##########       Grid_es:           -0.252581
##########    Int_energy:            4.717575

@<TRIPOS>MOLECULE
ligand
 33 35 1 0 0
SMALL
No Charge or Current Charge


@<TRIPOS>ATOM
      1 H1         13.5345   20.0681   19.5580 H       1  lig         0.0618
      2 H2         12.2440   18.0678   18.9630 H       1  lig         0.0618
      3 H3         15.9781   19.9294   20.0319 H       1  lig         0.0624
      4 H4         13.2780   15.8237   18.8279 H       1  lig         0.0638
      5 H5         20.5901   17.9612   20.7103 H       1  lig         0.0618
      6 H6         20.6699   15.5130   20.4923 H       1  lig         0.0618
      7 H7         18.4360   19.1824   20.4348 H       1  lig         0.0624
      8 H8         18.7190   14.1846   19.7793 H       1  lig         0.0638
      9 H9         15.4076   11.1884   20.9690 H       1  lig         0.0379
     10 H10        14.9209   11.5143   19.3282 H       1  lig         0.0379
     11 H11        16.8013   13.3994   20.8856 H       1  lig         0.0288
     12 H12        15.0637   13.4884   21.0720 H       1  lig         0.0288
     13 H13        14.6954   14.0979   18.7792 H       1  lig         0.0492
     14 H14        16.3518   13.6975   18.3302 H       1  lig         0.0492
     15 C1         14.0380   19.1067   19.5103 C.ar    1  lig        -0.0611
     16 C2         13.3033   17.9596   19.1773 C.ar    1  lig        -0.0598
     17 C3         15.4102   19.0379   19.7788 C.ar    1  lig        -0.0520
     18 C4         13.8808   16.6872   19.0955 C.ar    1  lig        -0.0376
     19 C5         15.9958   17.7737   19.7062 C.ar    1  lig         0.0076
     20 C6         15.2474   16.5479   19.3638 C.ar    1  lig         0.0501
     21 C7         19.6968   17.4189   20.4071 C.ar    1  lig        -0.0611
     22 C8         19.7654   16.0284   20.2195 C.ar    1  lig        -0.0598
     23 C9         18.4860   18.1120   20.2699 C.ar    1  lig        -0.0520
     24 C10        18.6377   15.2640   19.8741 C.ar    1  lig        -0.0376
     25 C11        17.3693   17.3629   19.9233 C.ar    1  lig         0.0076
     26 C12        17.4036   15.8975   19.7171 C.ar    1  lig         0.0501
     27 C13        17.0066   11.0869   19.5937 C.2     1  lig         0.3561
     28 C14        15.7067   11.7075   20.0576 C.3     1  lig         0.0508
     29 C15        15.8569   13.2082   20.3741 C.3     1  lig        -0.0247
     30 C16        15.7299   14.1082   19.1313 C.3     1  lig         0.0244
     31 N1         16.1303   15.5012   19.3829 N.pl3   1  lig        -0.3398
     32 O1         17.1693    9.7675   19.6024 O.co2   1  lig        -0.2464
     33 O2         17.9361   11.7803   19.2067 O.co2   1  lig        -0.2464
@<TRIPOS>BOND
     1    27    33    1
     2    27    32    1
     3    27    28    1
     4    28    29    1
     5     9    28    1
     6    10    28    1
     7    29    30    1
     8    11    29    1
     9    12    29    1
    10    30    31    1
    11    13    30    1
    12    14    30    1
    13    26    31    1
    14    20    31    1
    15    24    26   ar
    16    25    26   ar
    17    22    24   ar
    18     8    24    1
    19    23    25   ar
    20    19    25    1
    21    21    23   ar
    22     7    23    1
    23    21    22   ar
    24     5    21    1
    25     6    22    1
    26    19    20   ar
    27    17    19   ar
    28    18    20   ar
    29    16    18   ar
    30     4    18    1
    31    15    17   ar
    32     3    17    1
    33    15    16   ar
    34     1    15    1
    35     2    16    1
@<TRIPOS>SUBSTRUCTURE
     1 lig         1 TEMP              0 ****  ****    0 ROOT


########## Name:		ligand
########## HA_RMSDs:		5.0212
########## HA_RMSDh:		4.0886
########## HA_RMSDm:		1.3075
########## Cluster Size:	4
##########    Grid Score:          -31.956617
##########      Grid_vdw:          -31.860907
##########       Grid_es:           -0.095712
##########    Int_energy:            3.634519

@<TRIPOS>MOLECULE
ligand
 33 35 1 0 0
SMALL
No Charge or Current Charge


@<TRIPOS>ATOM
      1 H1         12.6089   17.2156   17.7899 H       1  lig         0.0618
      2 H2         13.1101   16.4290   20.0594 H       1  lig         0.0618
      3 H3         14.4358   17.7334   16.1746 H       1  lig         0.0624
      4 H4         15.4293   16.1349   20.8709 H       1  lig         0.0638
      5 H5         19.0930   18.3559   14.2962 H       1  lig         0.0618
      6 H6         20.8875   17.9402   15.9255 H       1  lig         0.0618
      7 H7         16.7039   18.1310   14.9666 H       1  lig         0.0624
      8 H8         20.4424   17.0757   18.1912 H       1  lig         0.0638
      9 H9         19.1444   13.1057   21.2096 H       1  lig         0.0379
     10 H10        17.8835   14.1497   21.8059 H       1  lig         0.0379
     11 H11        19.3409   14.7862   19.1727 H       1  lig         0.0288
     12 H12        20.1066   15.1391   20.7060 H       1  lig         0.0288
     13 H13        19.0853   17.1488   20.5906 H       1  lig         0.0492
     14 H14        17.6553   16.2837   21.1495 H       1  lig         0.0492
     15 C1         13.6452   17.1012   18.0950 C.ar    1  lig        -0.0611
     16 C2         13.9367   16.6584   19.3933 C.ar    1  lig        -0.0598
     17 C3         14.6647   17.3951   17.1817 C.ar    1  lig        -0.0520
     18 C4         15.2454   16.4862   19.8592 C.ar    1  lig        -0.0376
     19 C5         15.9736   17.2329   17.6368 C.ar    1  lig         0.0076
     20 C6         16.3113   16.7741   18.9989 C.ar    1  lig         0.0501
     21 C7         18.8431   17.9886   15.2895 C.ar    1  lig        -0.0611
     22 C8         19.8759   17.6896   16.1936 C.ar    1  lig        -0.0598
     23 C9         17.4962   17.8803   15.6630 C.ar    1  lig        -0.0520
     24 C10        19.6189   17.2565   17.5058 C.ar    1  lig        -0.0376
     25 C11        17.2360   17.4477   16.9567 C.ar    1  lig         0.0076
     26 C12        18.2975   17.1232   17.9359 C.ar    1  lig         0.0501
     27 C13        17.4421   13.1474   19.9608 C.2     1  lig         0.3561
     28 C14        18.4039   13.8439   20.8991 C.3     1  lig         0.0508
     29 C15        19.1357   15.0172   20.2189 C.3     1  lig        -0.0247
     30 C16        18.3806   16.3541   20.3333 C.3     1  lig         0.0244
     31 N1         17.6765   16.7281   19.0970 N.pl3   1  lig        -0.3398
     32 O1         16.1915   12.8966   20.3352 O.co2   1  lig        -0.2464
     33 O2         17.7914   12.7955   18.8434 O.co2   1  lig        -0.2464
@<TRIPOS>BOND
     1    27    33    1
     2    27    32    1
     3    27    28    1
     4    28    29    1
     5     9    28    1
     6    10    28    1
     7    29    30    1
     8    11    29    1
     9    12    29    1
    10    30    31    1
    11    13    30    1
    12    14    30    1
    13    26    31    1
    14    20    31    1
    15    24    26   ar
    16    25    26   ar
    17    22    24   ar
    18     8    24    1
    19    23    25   ar
    20    19    25    1
    21    21    23   ar
    22     7    23    1
    23    21    22   ar
    24     5    21    1
    25     6    22    1
    26    19    20   ar
    27    17    19   ar
    28    18    20   ar
    29    16    18   ar
    30     4    18    1
    31    15    17   ar
    32     3    17    1
    33    15    16   ar
    34     1    15    1
    35     2    16    1
@<TRIPOS>SUBSTRUCTURE
     1 lig         1 TEMP              0 ****  ****    0 ROOT


########## Name:		ligand
########## HA_RMSDs:		4.8205
########## HA_RMSDh:		4.5395
########## HA_RMSDm:		1.1493
########## Cluster Size:	5
##########    Grid Score:          -31.930035
##########      Grid_vdw:          -32.171864
##########       Grid_es:            0.241828
##########    Int_energy:            4.583562

@<TRIPOS>MOLECULE
ligand
 33 35 1 0 0
SMALL
No Charge or Current Charge


@<TRIPOS>ATOM
      1 H1         19.6950   14.3938   21.1321 H       1  lig         0.0618
      2 H2         21.0158   15.7327   19.5563 H       1  lig         0.0618
      3 H3         17.2045   14.3647   21.0237 H       1  lig         0.0624
      4 H4         19.9617   17.1332   17.8096 H       1  lig         0.0638
      5 H5         12.4931   15.4423   19.5250 H       1  lig         0.0618
      6 H6         12.3788   17.1122   17.7232 H       1  lig         0.0618
      7 H7         14.6948   14.7406   20.4563 H       1  lig         0.0624
      8 H8         14.3929   17.9929   16.6067 H       1  lig         0.0638
      9 H9         15.9943   16.8424   14.9113 H       1  lig         0.0379
     10 H10        16.9670   16.7949   13.4668 H       1  lig         0.0379
     11 H11        18.4466   18.2170   14.5954 H       1  lig         0.0288
     12 H12        18.8447   16.8367   15.5944 H       1  lig         0.0288
     13 H13        16.5763   18.7664   16.2441 H       1  lig         0.0492
     14 H14        18.1979   18.8534   16.9284 H       1  lig         0.0492
     15 C1         19.1821   14.9895   20.3822 C.ar    1  lig        -0.0611
     16 C2         19.9325   15.7616   19.4838 C.ar    1  lig        -0.0598
     17 C3         17.7833   14.9679   20.3292 C.ar    1  lig        -0.0520
     18 C4         19.3445   16.5539   18.4909 C.ar    1  lig        -0.0376
     19 C5         17.1856   15.7585   19.3473 C.ar    1  lig         0.0076
     20 C6         17.9487   16.5857   18.3916 C.ar    1  lig         0.0501
     21 C7         13.4124   15.8114   19.0746 C.ar    1  lig        -0.0611
     22 C8         13.3394   16.7147   18.0012 C.ar    1  lig        -0.0598
     23 C9         14.6461   15.4233   19.6154 C.ar    1  lig        -0.0520
     24 C10        14.4885   17.2639   17.4068 C.ar    1  lig        -0.0376
     25 C11        15.7853   15.9585   19.0287 C.ar    1  lig         0.0076
     26 C12        15.7473   16.9118   17.8970 C.ar    1  lig         0.0501
     27 C13        17.2133   15.1227   14.7883 C.2     1  lig         0.3561
     28 C14        16.9896   16.5983   14.5380 C.3     1  lig         0.0508
     29 C15        18.0192   17.4775   15.2740 C.3     1  lig        -0.0247
     30 C16        17.4463   18.1679   16.5253 C.3     1  lig         0.0244
     31 N1         17.0485   17.2200   17.5776 N.pl3   1  lig        -0.3398
     32 O1         16.5806   14.4990   15.7772 O.co2   1  lig        -0.2464
     33 O2         17.9813   14.4725   14.0941 O.co2   1  lig        -0.2464
@<TRIPOS>BOND
     1    27    33    1
     2    27    32    1
     3    27    28    1
     4    28    29    1
     5     9    28    1
     6    10    28    1
     7    29    30    1
     8    11    29    1
     9    12    29    1
    10    30    31    1
    11    13    30    1
    12    14    30    1
    13    26    31    1
    14    20    31    1
    15    24    26   ar
    16    25    26   ar
    17    22    24   ar
    18     8    24    1
    19    23    25   ar
    20    19    25    1
    21    21    23   ar
    22     7    23    1
    23    21    22   ar
    24     5    21    1
    25     6    22    1
    26    19    20   ar
    27    17    19   ar
    28    18    20   ar
    29    16    18   ar
    30     4    18    1
    31    15    17   ar
    32     3    17    1
    33    15    16   ar
    34     1    15    1
    35     2    16    1
@<TRIPOS>SUBSTRUCTURE
     1 lig         1 TEMP              0 ****  ****    0 ROOT


########## Name:		ligand
########## HA_RMSDs:		4.5298
########## HA_RMSDh:		4.4240
########## HA_RMSDm:		1.9441
########## Cluster Size:	5
##########    Grid Score:          -31.914955
##########      Grid_vdw:          -31.583261
##########       Grid_es:           -0.331693
##########    Int_energy:            7.608946

@<TRIPOS>MOLECULE
ligand
 33 35 1 0 0
SMALL
No Charge or Current Charge


@<TRIPOS>ATOM
      1 H1         20.4119   14.4022   22.0085 H       1  lig         0.0618
      2 H2         20.7029   16.8334   21.8491 H       1  lig         0.0618
      3 H3         18.2781   13.3135   21.3181 H       1  lig         0.0624
      4 H4         18.9068   18.3254   21.0296 H       1  lig         0.0638
      5 H5         13.5331   12.7769   19.6444 H       1  lig         0.0618
      6 H6         12.4021   14.9058   19.1579 H       1  lig         0.0618
      7 H7         15.8749   12.7585   20.4946 H       1  lig         0.0624
      8 H8         13.5675   17.0761   19.2608 H       1  lig         0.0638
      9 H9         17.5466   18.8565   16.9506 H       1  lig         0.0379
     10 H10        17.8435   17.7377   18.2527 H       1  lig         0.0379
     11 H11        15.0965   19.0506   18.1308 H       1  lig         0.0288
     12 H12        16.4525   20.0949   18.4946 H       1  lig         0.0288
     13 H13        15.1218   18.8824   20.4579 H       1  lig         0.0492
     14 H14        16.8521   19.2000   20.5613 H       1  lig         0.0492
     15 C1         19.5919   15.0117   21.6392 C.ar    1  lig        -0.0611
     16 C2         19.7511   16.4023   21.5527 C.ar    1  lig        -0.0598
     17 C3         18.3969   14.3919   21.2547 C.ar    1  lig        -0.0520
     18 C4         18.7416   17.2530   21.0874 C.ar    1  lig        -0.0376
     19 C5         17.3812   15.2305   20.7947 C.ar    1  lig         0.0076
     20 C6         17.5174   16.6974   20.6978 C.ar    1  lig         0.0501
     21 C7         14.0879   13.7100   19.7190 C.ar    1  lig        -0.0611
     22 C8         13.4559   14.9167   19.3757 C.ar    1  lig        -0.0598
     23 C9         15.3996   13.6915   20.2133 C.ar    1  lig        -0.0520
     24 C10        14.1019   16.1593   19.4947 C.ar    1  lig        -0.0376
     25 C11        16.0450   14.9157   20.3280 C.ar    1  lig         0.0076
     26 C12        15.4116   16.2063   19.9757 C.ar    1  lig         0.0501
     27 C13        16.3028   17.1516   16.8792 C.2     1  lig         0.3561
     28 C14        17.0501   18.2038   17.6696 C.3     1  lig         0.0508
     29 C15        16.1079   19.0586   18.5394 C.3     1  lig        -0.0247
     30 C16        16.0906   18.6318   20.0187 C.3     1  lig         0.0244
     31 N1         16.3387   17.1944   20.2086 N.pl3   1  lig        -0.3398
     32 O1         16.8293   15.9460   16.6879 O.co2   1  lig        -0.2464
     33 O2         15.2048   17.3851   16.3951 O.co2   1  lig        -0.2464
@<TRIPOS>BOND
     1    27    33    1
     2    27    32    1
     3    27    28    1
     4    28    29    1
     5     9    28    1
     6    10    28    1
     7    29    30    1
     8    11    29    1
     9    12    29    1
    10    30    31    1
    11    13    30    1
    12    14    30    1
    13    26    31    1
    14    20    31    1
    15    24    26   ar
    16    25    26   ar
    17    22    24   ar
    18     8    24    1
    19    23    25   ar
    20    19    25    1
    21    21    23   ar
    22     7    23    1
    23    21    22   ar
    24     5    21    1
    25     6    22    1
    26    19    20   ar
    27    17    19   ar
    28    18    20   ar
    29    16    18   ar
    30     4    18    1
    31    15    17   ar
    32     3    17    1
    33    15    16   ar
    34     1    15    1
    35     2    16    1
@<TRIPOS>SUBSTRUCTURE
     1 lig         1 TEMP              0 ****  ****    0 ROOT


########## Name:		ligand
########## HA_RMSDs:		4.8130
########## HA_RMSDh:		4.6391
########## HA_RMSDm:		1.6137
########## Cluster Size:	5
##########    Grid Score:          -31.867300
##########      Grid_vdw:          -31.569414
##########       Grid_es:           -0.297885
##########    Int_energy:            2.403139

@<TRIPOS>MOLECULE
ligand
 33 35 1 0 0
SMALL
No Charge or Current Charge


@<TRIPOS>ATOM
      1 H1         16.1602   20.6883   20.3989 H       1  lig         0.0618
      2 H2         15.0381   18.8905   21.6356 H       1  lig         0.0618
      3 H3         17.0757   20.3008   18.1128 H       1  lig         0.0624
      4 H4         14.7794   16.6122   20.7049 H       1  lig         0.0638
      5 H5         18.3441   17.9125   13.8358 H       1  lig         0.0618
      6 H6         17.7890   15.5167   13.8310 H       1  lig         0.0618
      7 H7         17.8361   19.3207   15.8274 H       1  lig         0.0624
      8 H8         16.5224   14.4490   15.6571 H       1  lig         0.0638
      9 H9         15.1123   12.1011   19.0894 H       1  lig         0.0379
     10 H10        16.4367   11.8765   20.1989 H       1  lig         0.0379
     11 H11        17.2015   13.6947   18.8030 H       1  lig         0.0288
     12 H12        16.5405   14.5286   20.1922 H       1  lig         0.0288
     13 H13        14.3588   14.8386   18.9863 H       1  lig         0.0492
     14 H14        15.0773   14.1007   17.5564 H       1  lig         0.0492
     15 C1         16.0710   19.7063   19.9431 C.ar    1  lig        -0.0611
     16 C2         15.4365   18.6737   20.6487 C.ar    1  lig        -0.0598
     17 C3         16.5889   19.4974   18.6593 C.ar    1  lig        -0.0520
     18 C4         15.2831   17.3834   20.1285 C.ar    1  lig        -0.0376
     19 C5         16.4471   18.2132   18.1326 C.ar    1  lig         0.0076
     20 C6         15.7893   17.1053   18.8535 C.ar    1  lig         0.0501
     21 C7         17.7963   17.4856   14.6736 C.ar    1  lig        -0.0611
     22 C8         17.4238   16.1317   14.6351 C.ar    1  lig        -0.0598
     23 C9         17.5289   18.2814   15.7963 C.ar    1  lig        -0.0520
     24 C10        16.7568   15.5090   15.7041 C.ar    1  lig        -0.0376
     25 C11        16.8652   17.6732   16.8536 C.ar    1  lig         0.0076
     26 C12        16.4569   16.2503   16.8484 C.ar    1  lig         0.0501
     27 C13        14.7047   12.8346   21.0270 C.2     1  lig         0.3561
     28 C14        15.6717   12.5876   19.8894 C.3     1  lig         0.0508
     29 C15        16.2744   13.8959   19.3416 C.3     1  lig        -0.0247
     30 C16        15.3000   14.6891   18.4515 C.3     1  lig         0.0244
     31 N1         15.8264   16.0010   18.0443 N.pl3   1  lig        -0.3398
     32 O1         13.4161   13.0549   20.7860 O.co2   1  lig        -0.2464
     33 O2         15.0839   12.8428   22.1892 O.co2   1  lig        -0.2464
@<TRIPOS>BOND
     1    27    33    1
     2    27    32    1
     3    27    28    1
     4    28    29    1
     5     9    28    1
     6    10    28    1
     7    29    30    1
     8    11    29    1
     9    12    29    1
    10    30    31    1
    11    13    30    1
    12    14    30    1
    13    26    31    1
    14    20    31    1
    15    24    26   ar
    16    25    26   ar
    17    22    24   ar
    18     8    24    1
    19    23    25   ar
    20    19    25    1
    21    21    23   ar
    22     7    23    1
    23    21    22   ar
    24     5    21    1
    25     6    22    1
    26    19    20   ar
    27    17    19   ar
    28    18    20   ar
    29    16    18   ar
    30     4    18    1
    31    15    17   ar
    32     3    17    1
    33    15    16   ar
    34     1    15    1
    35     2    16    1
@<TRIPOS>SUBSTRUCTURE
     1 lig         1 TEMP              0 ****  ****    0 ROOT


########## Name:		ligand
########## HA_RMSDs:		3.8930
########## HA_RMSDh:		3.3757
########## HA_RMSDm:		0.3949
########## Cluster Size:	7
##########    Grid Score:          -31.798508
##########      Grid_vdw:          -31.089001
##########       Grid_es:           -0.709507
##########    Int_energy:            5.521480

@<TRIPOS>MOLECULE
ligand
 33 35 1 0 0
SMALL
No Charge or Current Charge


@<TRIPOS>ATOM
      1 H1         22.3262   17.8609   20.2116 H       1  lig         0.0618
      2 H2         22.0078   18.3633   17.8311 H       1  lig         0.0618
      3 H3         20.6835   16.4644   21.4631 H       1  lig         0.0624
      4 H4         20.0480   17.5443   16.5614 H       1  lig         0.0638
      5 H5         16.5712   13.6832   22.4422 H       1  lig         0.0618
      6 H6         15.0282   13.4826   20.5378 H       1  lig         0.0618
      7 H7         18.6692   15.0102   22.2312 H       1  lig         0.0624
      8 H8         15.5671   14.3671   18.3004 H       1  lig         0.0638
      9 H9         14.6785   17.8983   16.7063 H       1  lig         0.0379
     10 H10        15.2775   16.7098   17.8306 H       1  lig         0.0379
     11 H11        17.4367   18.1928   16.3494 H       1  lig         0.0288
     12 H12        16.3241   17.3488   15.2950 H       1  lig         0.0288
     13 H13        18.2524   15.9112   15.8193 H       1  lig         0.0492
     14 H14        16.7430   15.2081   16.3962 H       1  lig         0.0492
     15 C1         21.4490   17.4743   19.7005 C.ar    1  lig        -0.0611
     16 C2         21.2592   17.7644   18.3417 C.ar    1  lig        -0.0598
     17 C3         20.5313   16.6918   20.4113 C.ar    1  lig        -0.0520
     18 C4         20.1555   17.3026   17.6153 C.ar    1  lig        -0.0376
     19 C5         19.4238   16.2306   19.6992 C.ar    1  lig         0.0076
     20 C6         19.1943   16.5242   18.2705 C.ar    1  lig         0.0501
     21 C7         16.8491   14.1044   21.4782 C.ar    1  lig        -0.0611
     22 C8         15.9942   13.9290   20.3774 C.ar    1  lig        -0.0598
     23 C9         18.0235   14.8627   21.3728 C.ar    1  lig        -0.0520
     24 C10        16.2727   14.4873   19.1180 C.ar    1  lig        -0.0376
     25 C11        18.3068   15.4123   20.1295 C.ar    1  lig         0.0076
     26 C12        17.4305   15.2484   18.9478 C.ar    1  lig         0.0501
     27 C13        15.8452   18.7350   18.2547 C.2     1  lig         0.3561
     28 C14        15.5573   17.6099   17.2845 C.3     1  lig         0.0508
     29 C15        16.7267   17.3654   16.3110 C.3     1  lig        -0.0247
     30 C16        17.4504   16.0280   16.5524 C.3     1  lig         0.0244
     31 N1         18.0235   15.9163   17.9026 N.pl3   1  lig        -0.3398
     32 O1         14.9026   19.6189   18.5672 O.co2   1  lig        -0.2464
     33 O2         16.9474   18.8611   18.7683 O.co2   1  lig        -0.2464
@<TRIPOS>BOND
     1    27    33    1
     2    27    32    1
     3    27    28    1
     4    28    29    1
     5     9    28    1
     6    10    28    1
     7    29    30    1
     8    11    29    1
     9    12    29    1
    10    30    31    1
    11    13    30    1
    12    14    30    1
    13    26    31    1
    14    20    31    1
    15    24    26   ar
    16    25    26   ar
    17    22    24   ar
    18     8    24    1
    19    23    25   ar
    20    19    25    1
    21    21    23   ar
    22     7    23    1
    23    21    22   ar
    24     5    21    1
    25     6    22    1
    26    19    20   ar
    27    17    19   ar
    28    18    20   ar
    29    16    18   ar
    30     4    18    1
    31    15    17   ar
    32     3    17    1
    33    15    16   ar
    34     1    15    1
    35     2    16    1
@<TRIPOS>SUBSTRUCTURE
     1 lig         1 TEMP              0 ****  ****    0 ROOT


########## Name:		ligand
########## HA_RMSDs:		6.0872
########## HA_RMSDh:		4.7974
########## HA_RMSDm:		2.4952
########## Cluster Size:	6
##########    Grid Score:          -31.725180
##########      Grid_vdw:          -31.933830
##########       Grid_es:            0.208650
##########    Int_energy:            4.527447

@<TRIPOS>MOLECULE
ligand
 33 35 1 0 0
SMALL
No Charge or Current Charge


@<TRIPOS>ATOM
      1 H1         12.0237   14.7614   19.2261 H       1  lig         0.0618
      2 H2         12.0041   16.8370   17.9177 H       1  lig         0.0618
      3 H3         14.1667   13.7405   19.9878 H       1  lig         0.0624
      4 H4         14.0864   18.0044   17.2658 H       1  lig         0.0638
      5 H5         19.1348   13.0291   20.6333 H       1  lig         0.0618
      6 H6         20.5367   14.6824   19.4717 H       1  lig         0.0618
      7 H7         16.6514   13.1440   20.4698 H       1  lig         0.0624
      8 H8         19.5859   16.6323   18.3000 H       1  lig         0.0638
      9 H9         18.7396   17.1780   14.5966 H       1  lig         0.0379
     10 H10        18.6160   16.3320   16.1145 H       1  lig         0.0379
     11 H11        16.0351   17.6111   15.4396 H       1  lig         0.0288
     12 H12        17.3333   18.7712   15.2637 H       1  lig         0.0288
     13 H13        16.4408   18.9236   17.5298 H       1  lig         0.0492
     14 H14        18.1111   18.3628   17.5674 H       1  lig         0.0492
     15 C1         12.9668   15.2353   18.9686 C.ar    1  lig        -0.0611
     16 C2         12.9610   16.4180   18.2152 C.ar    1  lig        -0.0598
     17 C3         14.1655   14.6545   19.3998 C.ar    1  lig        -0.0520
     18 C4         14.1338   17.0864   17.8451 C.ar    1  lig        -0.0376
     19 C5         15.3415   15.3086   19.0317 C.ar    1  lig         0.0076
     20 C6         15.3670   16.5513   18.2348 C.ar    1  lig         0.0501
     21 C7         18.6657   13.8643   20.1172 C.ar    1  lig        -0.0611
     22 C8         19.4731   14.8417   19.5122 C.ar    1  lig        -0.0598
     23 C9         17.2682   13.9120   20.0168 C.ar    1  lig        -0.0520
     24 C10        18.9298   15.9189   18.7911 C.ar    1  lig        -0.0376
     25 C11        16.7253   14.9770   19.3102 C.ar    1  lig         0.0076
     26 C12        17.5440   16.0251   18.6604 C.ar    1  lig         0.0501
     27 C13        17.3167   15.6183   14.5634 C.2     1  lig         0.3561
     28 C14        18.0257   16.7380   15.2939 C.3     1  lig         0.0508
     29 C15        17.0528   17.8385   15.7600 C.3     1  lig        -0.0247
     30 C16        17.0932   18.0833   17.2795 C.3     1  lig         0.0244
     31 N1         16.6775   16.9111   18.0652 N.pl3   1  lig        -0.3398
     32 O1         17.5828   14.3474   14.8484 O.co2   1  lig        -0.2464
     33 O2         16.4900   15.8538   13.6941 O.co2   1  lig        -0.2464
@<TRIPOS>BOND
     1    27    33    1
     2    27    32    1
     3    27    28    1
     4    28    29    1
     5     9    28    1
     6    10    28    1
     7    29    30    1
     8    11    29    1
     9    12    29    1
    10    30    31    1
    11    13    30    1
    12    14    30    1
    13    26    31    1
    14    20    31    1
    15    24    26   ar
    16    25    26   ar
    17    22    24   ar
    18     8    24    1
    19    23    25   ar
    20    19    25    1
    21    21    23   ar
    22     7    23    1
    23    21    22   ar
    24     5    21    1
    25     6    22    1
    26    19    20   ar
    27    17    19   ar
    28    18    20   ar
    29    16    18   ar
    30     4    18    1
    31    15    17   ar
    32     3    17    1
    33    15    16   ar
    34     1    15    1
    35     2    16    1
@<TRIPOS>SUBSTRUCTURE
     1 lig         1 TEMP              0 ****  ****    0 ROOT


########## Name:		ligand
########## HA_RMSDs:		5.0049
########## HA_RMSDh:		4.1362
########## HA_RMSDm:		1.6046
########## Cluster Size:	8
##########    Grid Score:          -31.584219
##########      Grid_vdw:          -32.526619
##########       Grid_es:            0.942400
##########    Int_energy:            2.637058

@<TRIPOS>MOLECULE
ligand
 33 35 1 0 0
SMALL
No Charge or Current Charge


@<TRIPOS>ATOM
      1 H1         17.7200   14.5977   22.4105 H       1  lig         0.0618
      2 H2         15.6202   15.2536   21.3238 H       1  lig         0.0618
      3 H3         19.9259   15.1949   21.4144 H       1  lig         0.0624
      4 H4         15.5751   16.5061   19.1900 H       1  lig         0.0638
      5 H5         23.3368   17.0630   18.1770 H       1  lig         0.0618
      6 H6         22.3495   18.0785   16.1665 H       1  lig         0.0618
      7 H7         21.8776   16.0566   19.9279 H       1  lig         0.0624
      8 H8         19.9161   18.3578   15.8850 H       1  lig         0.0638
      9 H9         17.8252   16.9517   14.3760 H       1  lig         0.0379
     10 H10        18.3556   15.6706   15.4310 H       1  lig         0.0379
     11 H11        16.1022   15.8527   16.6581 H       1  lig         0.0288
     12 H12        15.6308   17.0923   15.5166 H       1  lig         0.0288
     13 H13        16.3033   18.2758   17.4718 H       1  lig         0.0492
     14 H14        17.5829   18.5095   16.2829 H       1  lig         0.0492
     15 C1         17.7563   15.1493   21.4754 C.ar    1  lig        -0.0611
     16 C2         16.5589   15.5205   20.8470 C.ar    1  lig        -0.0598
     17 C3         18.9995   15.4796   20.9227 C.ar    1  lig        -0.0520
     18 C4         16.5243   16.2317   19.6419 C.ar    1  lig        -0.0376
     19 C5         18.9777   16.1834   19.7183 C.ar    1  lig         0.0076
     20 C6         17.7336   16.5829   19.0308 C.ar    1  lig         0.0501
     21 C7         22.2553   17.1494   18.0939 C.ar    1  lig        -0.0611
     22 C8         21.6994   17.7901   16.9741 C.ar    1  lig        -0.0598
     23 C9         21.4422   16.5665   19.0758 C.ar    1  lig        -0.0520
     24 C10        20.3105   17.8932   16.7846 C.ar    1  lig        -0.0376
     25 C11        20.0690   16.6698   18.8968 C.ar    1  lig         0.0076
     26 C12        19.4477   17.3374   17.7309 C.ar    1  lig         0.0501
     27 C13        16.8091   15.1305   14.0453 C.2     1  lig         0.3561
     28 C14        17.4693   16.1181   14.9827 C.3     1  lig         0.0508
     29 C15        16.4895   16.6637   16.0398 C.3     1  lig        -0.0247
     30 C16        17.1000   17.7662   16.9243 C.3     1  lig         0.0244
     31 N1         18.0847   17.2538   17.8897 N.pl3   1  lig        -0.3398
     32 O1         16.1821   15.5497   12.9505 O.co2   1  lig        -0.2464
     33 O2         16.8314   13.9296   14.2732 O.co2   1  lig        -0.2464
@<TRIPOS>BOND
     1    27    33    1
     2    27    32    1
     3    27    28    1
     4    28    29    1
     5     9    28    1
     6    10    28    1
     7    29    30    1
     8    11    29    1
     9    12    29    1
    10    30    31    1
    11    13    30    1
    12    14    30    1
    13    26    31    1
    14    20    31    1
    15    24    26   ar
    16    25    26   ar
    17    22    24   ar
    18     8    24    1
    19    23    25   ar
    20    19    25    1
    21    21    23   ar
    22     7    23    1
    23    21    22   ar
    24     5    21    1
    25     6    22    1
    26    19    20   ar
    27    17    19   ar
    28    18    20   ar
    29    16    18   ar
    30     4    18    1
    31    15    17   ar
    32     3    17    1
    33    15    16   ar
    34     1    15    1
    35     2    16    1
@<TRIPOS>SUBSTRUCTURE
     1 lig         1 TEMP              0 ****  ****    0 ROOT


########## Name:		ligand
########## HA_RMSDs:		5.1903
########## HA_RMSDh:		4.6126
########## HA_RMSDm:		0.5571
########## Cluster Size:	3
##########    Grid Score:          -31.545063
##########      Grid_vdw:          -31.852306
##########       Grid_es:            0.307243
##########    Int_energy:            5.520943

@<TRIPOS>MOLECULE
ligand
 33 35 1 0 0
SMALL
No Charge or Current Charge


@<TRIPOS>ATOM
      1 H1         16.9551   17.2462   13.5269 H       1  lig         0.0618
      2 H2         17.3380   14.8491   13.8843 H       1  lig         0.0618
      3 H3         16.3409   18.7476   15.4199 H       1  lig         0.0624
      4 H4         17.1123   13.7955   16.1120 H       1  lig         0.0638
      5 H5         15.1627   20.2661   20.1008 H       1  lig         0.0618
      6 H6         15.0407   18.4368   21.7399 H       1  lig         0.0618
      7 H7         15.7132   19.7898   17.7181 H       1  lig         0.0624
      8 H8         15.6659   16.1179   21.1826 H       1  lig         0.0638
      9 H9         17.3960   14.4225   21.3610 H       1  lig         0.0379
     10 H10        18.6796   13.2455   21.4084 H       1  lig         0.0379
     11 H11        18.0248   12.6051   19.2557 H       1  lig         0.0288
     12 H12        18.5682   14.1748   18.7056 H       1  lig         0.0288
     13 H13        15.8262   14.0728   19.9278 H       1  lig         0.0492
     14 H14        16.0402   13.3541   18.3330 H       1  lig         0.0492
     15 C1         16.8452   16.8345   14.5262 C.ar    1  lig        -0.0611
     16 C2         17.0564   15.4639   14.7342 C.ar    1  lig        -0.0598
     17 C3         16.4992   17.6848   15.5832 C.ar    1  lig        -0.0520
     18 C4         16.9340   14.8605   15.9913 C.ar    1  lig        -0.0376
     19 C5         16.3684   17.0936   16.8401 C.ar    1  lig         0.0076
     20 C6         16.5789   15.6535   17.0886 C.ar    1  lig         0.0501
     21 C7         15.4350   19.2562   19.8009 C.ar    1  lig        -0.0611
     22 C8         15.4275   18.2277   20.7577 C.ar    1  lig        -0.0598
     23 C9         15.7279   18.9948   18.4552 C.ar    1  lig        -0.0520
     24 C10        15.7235   16.8947   20.4249 C.ar    1  lig        -0.0376
     25 C11        16.0265   17.6804   18.1211 C.ar    1  lig         0.0076
     26 C12        16.0290   16.5715   19.1016 C.ar    1  lig         0.0501
     27 C13        19.2792   15.2280   20.8481 C.2     1  lig         0.3561
     28 C14        18.2886   14.0840   20.8334 C.3     1  lig         0.0508
     29 C15        17.8881   13.6774   19.4019 C.3     1  lig        -0.0247
     30 C16        16.4514   14.0890   19.0316 C.3     1  lig         0.0244
     31 N1         16.3716   15.4259   18.4231 N.pl3   1  lig        -0.3398
     32 O1         20.0885   15.4109   21.8868 O.co2   1  lig        -0.2464
     33 O2         19.3557   16.0109   19.9123 O.co2   1  lig        -0.2464
@<TRIPOS>BOND
     1    27    33    1
     2    27    32    1
     3    27    28    1
     4    28    29    1
     5     9    28    1
     6    10    28    1
     7    29    30    1
     8    11    29    1
     9    12    29    1
    10    30    31    1
    11    13    30    1
    12    14    30    1
    13    26    31    1
    14    20    31    1
    15    24    26   ar
    16    25    26   ar
    17    22    24   ar
    18     8    24    1
    19    23    25   ar
    20    19    25    1
    21    21    23   ar
    22     7    23    1
    23    21    22   ar
    24     5    21    1
    25     6    22    1
    26    19    20   ar
    27    17    19   ar
    28    18    20   ar
    29    16    18   ar
    30     4    18    1
    31    15    17   ar
    32     3    17    1
    33    15    16   ar
    34     1    15    1
    35     2    16    1
@<TRIPOS>SUBSTRUCTURE
     1 lig         1 TEMP              0 ****  ****    0 ROOT


########## Name:		ligand
########## HA_RMSDs:		1.4078
########## HA_RMSDh:		1.2191
########## HA_RMSDm:		0.1707
########## Cluster Size:	3
##########    Grid Score:          -31.518476
##########      Grid_vdw:          -30.463041
##########       Grid_es:           -1.055435
##########    Int_energy:            4.573598

@<TRIPOS>MOLECULE
ligand
 33 35 1 0 0
SMALL
No Charge or Current Charge


@<TRIPOS>ATOM
      1 H1         23.2369   17.9484   18.0878 H       1  lig         0.0618
      2 H2         22.4795   16.8292   20.1358 H       1  lig         0.0618
      3 H3         21.6675   18.3739   16.1981 H       1  lig         0.0624
      4 H4         20.1503   16.0455   20.4259 H       1  lig         0.0638
      5 H5         17.4162   18.3900   13.4539 H       1  lig         0.0618
      6 H6         15.5362   17.2196   14.5234 H       1  lig         0.0618
      7 H7         19.6307   18.5194   14.5882 H       1  lig         0.0624
      8 H8         15.6659   16.3308   16.8194 H       1  lig         0.0638
      9 H9         15.9477   18.4112   20.9805 H       1  lig         0.0379
     10 H10        16.6011   18.4519   19.3660 H       1  lig         0.0379
     11 H11        16.4839   15.9840   21.2315 H       1  lig         0.0288
     12 H12        17.9000   16.9700   20.9412 H       1  lig         0.0288
     13 H13        16.4929   15.3447   18.7792 H       1  lig         0.0492
     14 H14        17.9569   14.8602   19.6321 H       1  lig         0.0492
     15 C1         22.2022   17.6263   18.1648 C.ar    1  lig        -0.0611
     16 C2         21.7664   16.9802   19.3306 C.ar    1  lig        -0.0598
     17 C3         21.3281   17.8686   17.0984 C.ar    1  lig        -0.0520
     18 C4         20.4502   16.5367   19.5042 C.ar    1  lig        -0.0376
     19 C5         20.0148   17.4256   17.2576 C.ar    1  lig         0.0076
     20 C6         19.5285   16.7379   18.4702 C.ar    1  lig         0.0501
     21 C7         17.5289   18.0022   14.4643 C.ar    1  lig        -0.0611
     22 C8         16.4311   17.3936   15.0951 C.ar    1  lig        -0.0598
     23 C9         18.7826   18.0654   15.0883 C.ar    1  lig        -0.0520
     24 C10        16.5243   16.8316   16.3800 C.ar    1  lig        -0.0376
     25 C11        18.8795   17.5166   16.3602 C.ar    1  lig         0.0076
     26 C12        17.7452   16.8683   17.0560 C.ar    1  lig         0.0501
     27 C13        14.7513   17.3852   19.5754 C.2     1  lig         0.3561
     28 C14        16.1117   17.8023   20.0907 C.3     1  lig         0.0508
     29 C15        16.9849   16.5928   20.4776 C.3     1  lig        -0.0247
     30 C16        17.3910   15.7248   19.2725 C.3     1  lig         0.0244
     31 N1         18.2023   16.4515   18.2838 N.pl3   1  lig        -0.3398
     32 O1         14.1745   18.0427   18.5742 O.co2   1  lig        -0.2464
     33 O2         14.1500   16.4417   20.0681 O.co2   1  lig        -0.2464
@<TRIPOS>BOND
     1    27    33    1
     2    27    32    1
     3    27    28    1
     4    28    29    1
     5     9    28    1
     6    10    28    1
     7    29    30    1
     8    11    29    1
     9    12    29    1
    10    30    31    1
    11    13    30    1
    12    14    30    1
    13    26    31    1
    14    20    31    1
    15    24    26   ar
    16    25    26   ar
    17    22    24   ar
    18     8    24    1
    19    23    25   ar
    20    19    25    1
    21    21    23   ar
    22     7    23    1
    23    21    22   ar
    24     5    21    1
    25     6    22    1
    26    19    20   ar
    27    17    19   ar
    28    18    20   ar
    29    16    18   ar
    30     4    18    1
    31    15    17   ar
    32     3    17    1
    33    15    16   ar
    34     1    15    1
    35     2    16    1
@<TRIPOS>SUBSTRUCTURE
     1 lig         1 TEMP              0 ****  ****    0 ROOT


########## Name:		ligand
########## HA_RMSDs:		4.1379
########## HA_RMSDh:		3.1115
########## HA_RMSDm:		1.9226
########## Cluster Size:	6
##########    Grid Score:          -31.490143
##########      Grid_vdw:          -31.217487
##########       Grid_es:           -0.272656
##########    Int_energy:            4.703327

@<TRIPOS>MOLECULE
ligand
 33 35 1 0 0
SMALL
No Charge or Current Charge


@<TRIPOS>ATOM
      1 H1         17.3911   13.9945   22.4259 H       1  lig         0.0618
      2 H2         15.5726   13.7309   20.7998 H       1  lig         0.0618
      3 H3         19.4622   15.2557   21.8473 H       1  lig         0.0624
      4 H4         15.7026   14.6679   18.5131 H       1  lig         0.0638
      5 H5         22.8174   17.9164   19.1514 H       1  lig         0.0618
      6 H6         22.1392   18.3022   16.8192 H       1  lig         0.0618
      7 H7         21.3503   16.6217   20.6937 H       1  lig         0.0624
      8 H8         19.9230   17.6461   15.9607 H       1  lig         0.0638
      9 H9         14.4074   17.9629   16.2611 H       1  lig         0.0379
     10 H10        14.7459   16.4686   17.0905 H       1  lig         0.0379
     11 H11        17.0988   18.3326   16.5981 H       1  lig         0.0288
     12 H12        16.3584   17.6296   15.1770 H       1  lig         0.0288
     13 H13        17.9546   16.0162   15.5944 H       1  lig         0.0492
     14 H14        16.5786   15.3375   16.4612 H       1  lig         0.0492
     15 C1         17.4979   14.4281   21.4356 C.ar    1  lig        -0.0611
     16 C2         16.4642   14.2743   20.5005 C.ar    1  lig        -0.0598
     17 C3         18.6647   15.1339   21.1190 C.ar    1  lig        -0.0520
     18 C4         16.5281   14.8037   19.2064 C.ar    1  lig        -0.0376
     19 C5         18.7425   15.6612   19.8297 C.ar    1  lig         0.0076
     20 C6         17.6734   15.5109   18.8224 C.ar    1  lig         0.0501
     21 C7         21.8333   17.5940   18.8171 C.ar    1  lig        -0.0611
     22 C8         21.4255   17.8762   17.5028 C.ar    1  lig        -0.0598
     23 C9         21.0214   16.8526   19.6867 C.ar    1  lig        -0.0520
     24 C10        20.1870   17.4467   16.9957 C.ar    1  lig        -0.0376
     25 C11        19.7941   16.4301   19.1931 C.ar    1  lig         0.0076
     26 C12        19.3308   16.7090   17.8151 C.ar    1  lig         0.0501
     27 C13        15.1169   18.2489   18.2291 C.2     1  lig         0.3561
     28 C14        15.1221   17.4778   16.9270 C.3     1  lig         0.0508
     29 C15        16.5066   17.4851   16.2502 C.3     1  lig        -0.0247
     30 C16        17.2863   16.1718   16.4450 C.3     1  lig         0.0244
     31 N1         18.0820   16.1498   17.6821 N.pl3   1  lig        -0.3398
     32 O1         14.2977   17.9046   19.2179 O.co2   1  lig        -0.2464
     33 O2         15.8583   19.2056   18.4009 O.co2   1  lig        -0.2464
@<TRIPOS>BOND
     1    27    33    1
     2    27    32    1
     3    27    28    1
     4    28    29    1
     5     9    28    1
     6    10    28    1
     7    29    30    1
     8    11    29    1
     9    12    29    1
    10    30    31    1
    11    13    30    1
    12    14    30    1
    13    26    31    1
    14    20    31    1
    15    24    26   ar
    16    25    26   ar
    17    22    24   ar
    18     8    24    1
    19    23    25   ar
    20    19    25    1
    21    21    23   ar
    22     7    23    1
    23    21    22   ar
    24     5    21    1
    25     6    22    1
    26    19    20   ar
    27    17    19   ar
    28    18    20   ar
    29    16    18   ar
    30     4    18    1
    31    15    17   ar
    32     3    17    1
    33    15    16   ar
    34     1    15    1
    35     2    16    1
@<TRIPOS>SUBSTRUCTURE
     1 lig         1 TEMP              0 ****  ****    0 ROOT


########## Name:		ligand
########## HA_RMSDs:		5.8817
########## HA_RMSDh:		5.6799
########## HA_RMSDm:		3.9984
########## Cluster Size:	6
##########    Grid Score:          -31.487900
##########      Grid_vdw:          -30.924639
##########       Grid_es:           -0.563260
##########    Int_energy:            4.204647

@<TRIPOS>MOLECULE
ligand
 33 35 1 0 0
SMALL
No Charge or Current Charge


@<TRIPOS>ATOM
      1 H1         14.2581   10.9060   19.5090 H       1  lig         0.0618
      2 H2         16.6966   10.9837   19.7699 H       1  lig         0.0618
      3 H3         12.9105   12.9993   19.3776 H       1  lig         0.0624
      4 H4         17.9369   13.1181   19.9424 H       1  lig         0.0638
      5 H5         11.7646   17.9279   19.3507 H       1  lig         0.0618
      6 H6         13.6959   19.4013   19.7340 H       1  lig         0.0618
      7 H7         12.0514   15.4531   19.3271 H       1  lig         0.0624
      8 H8         16.0033   18.5454   19.8827 H       1  lig         0.0638
      9 H9         17.5363   17.6491   18.0528 H       1  lig         0.0379
     10 H10        19.1526   17.6859   17.4038 H       1  lig         0.0379
     11 H11        19.7938   16.1354   19.0345 H       1  lig         0.0288
     12 H12        18.6291   15.0065   18.3778 H       1  lig         0.0288
     13 H13        17.8368   17.1631   20.3763 H       1  lig         0.0492
     14 H14        18.3251   15.5347   20.8403 H       1  lig         0.0492
     15 C1         14.7539   11.8702   19.5773 C.ar    1  lig        -0.0611
     16 C2         16.1467   11.9196   19.7333 C.ar    1  lig        -0.0598
     17 C3         13.9892   13.0406   19.5035 C.ar    1  lig        -0.0520
     18 C4         16.8563   13.1224   19.8283 C.ar    1  lig        -0.0376
     19 C5         14.6850   14.2457   19.6030 C.ar    1  lig         0.0076
     20 C6         16.1493   14.3291   19.7732 C.ar    1  lig         0.0501
     21 C7         12.7620   17.4991   19.4242 C.ar    1  lig        -0.0611
     22 C8         13.8686   18.3509   19.5764 C.ar    1  lig        -0.0598
     23 C9         12.9119   16.1053   19.4257 C.ar    1  lig        -0.0520
     24 C10        15.1766   17.8582   19.7239 C.ar    1  lig        -0.0376
     25 C11        14.2027   15.6126   19.5656 C.ar    1  lig         0.0076
     26 C12        15.3919   16.4789   19.7276 C.ar    1  lig         0.0501
     27 C13        17.8117   16.3184   16.4367 C.2     1  lig         0.3561
     28 C14        18.3380   17.0147   17.6730 C.3     1  lig         0.0508
     29 C15        18.7402   16.0179   18.7773 C.3     1  lig        -0.0247
     30 C16        17.8662   16.1235   20.0405 C.3     1  lig         0.0244
     31 N1         16.4876   15.6549   19.8306 N.pl3   1  lig        -0.3398
     32 O1         18.4261   16.4584   15.2661 O.co2   1  lig        -0.2464
     33 O2         16.8108   15.6179   16.4828 O.co2   1  lig        -0.2464
@<TRIPOS>BOND
     1    27    33    1
     2    27    32    1
     3    27    28    1
     4    28    29    1
     5     9    28    1
     6    10    28    1
     7    29    30    1
     8    11    29    1
     9    12    29    1
    10    30    31    1
    11    13    30    1
    12    14    30    1
    13    26    31    1
    14    20    31    1
    15    24    26   ar
    16    25    26   ar
    17    22    24   ar
    18     8    24    1
    19    23    25   ar
    20    19    25    1
    21    21    23   ar
    22     7    23    1
    23    21    22   ar
    24     5    21    1
    25     6    22    1
    26    19    20   ar
    27    17    19   ar
    28    18    20   ar
    29    16    18   ar
    30     4    18    1
    31    15    17   ar
    32     3    17    1
    33    15    16   ar
    34     1    15    1
    35     2    16    1
@<TRIPOS>SUBSTRUCTURE
     1 lig         1 TEMP              0 ****  ****    0 ROOT


########## Name:		ligand
########## HA_RMSDs:		4.4835
########## HA_RMSDh:		4.3866
########## HA_RMSDm:		1.6177
########## Cluster Size:	2
##########    Grid Score:          -31.434401
##########      Grid_vdw:          -31.132660
##########       Grid_es:           -0.301741
##########    Int_energy:            5.683252

@<TRIPOS>MOLECULE
ligand
 33 35 1 0 0
SMALL
No Charge or Current Charge


@<TRIPOS>ATOM
      1 H1         16.3878   20.5856   20.3942 H       1  lig         0.0618
      2 H2         15.6392   18.7878   21.8869 H       1  lig         0.0618
      3 H3         17.0451   20.1110   18.0368 H       1  lig         0.0624
      4 H4         15.5219   16.4275   21.1527 H       1  lig         0.0638
      5 H5         18.0228   17.5285   13.7965 H       1  lig         0.0618
      6 H6         17.7434   15.0960   14.0253 H       1  lig         0.0618
      7 H7         17.6158   19.0331   15.7402 H       1  lig         0.0624
      8 H8         16.8450   14.0548   16.0717 H       1  lig         0.0638
      9 H9         17.1607   14.5049   21.2686 H       1  lig         0.0379
     10 H10        18.2936   13.1825   21.2119 H       1  lig         0.0379
     11 H11        16.9661   12.5037   19.3819 H       1  lig         0.0288
     12 H12        17.9314   13.6771   18.5140 H       1  lig         0.0288
     13 H13        15.3576   14.5294   19.8801 H       1  lig         0.0492
     14 H14        15.3618   13.8359   18.2601 H       1  lig         0.0492
     15 C1         16.3523   19.5661   20.0207 C.ar    1  lig        -0.0611
     16 C2         15.9316   18.5342   20.8721 C.ar    1  lig        -0.0598
     17 C3         16.7241   19.3086   18.6958 C.ar    1  lig        -0.0520
     18 C4         15.8592   17.1973   20.4640 C.ar    1  lig        -0.0376
     19 C5         16.6617   17.9785   18.2794 C.ar    1  lig         0.0076
     20 C6         16.2284   16.8707   19.1540 C.ar    1  lig         0.0501
     21 C7         17.6365   17.1167   14.7266 C.ar    1  lig        -0.0611
     22 C8         17.4161   15.7331   14.8285 C.ar    1  lig        -0.0598
     23 C9         17.4254   17.9687   15.8197 C.ar    1  lig        -0.0520
     24 C10        16.9632   15.1335   16.0163 C.ar    1  lig        -0.0376
     25 C11        16.9728   17.3828   16.9945 C.ar    1  lig         0.0076
     26 C12        16.7291   15.9299   17.1387 C.ar    1  lig         0.0501
     27 C13        19.0029   15.0283   20.3790 C.2     1  lig         0.3561
     28 C14        17.9038   14.0198   20.6343 C.3     1  lig         0.0508
     29 C15        17.2159   13.5645   19.3326 C.3     1  lig        -0.0247
     30 C16        15.9660   14.3927   18.9827 C.3     1  lig         0.0244
     31 N1         16.2865   15.7145   18.4223 N.pl3   1  lig        -0.3398
     32 O1         19.2170   16.0277   21.2291 O.co2   1  lig        -0.2464
     33 O2         19.7136   14.9521   19.3873 O.co2   1  lig        -0.2464
@<TRIPOS>BOND
     1    27    33    1
     2    27    32    1
     3    27    28    1
     4    28    29    1
     5     9    28    1
     6    10    28    1
     7    29    30    1
     8    11    29    1
     9    12    29    1
    10    30    31    1
    11    13    30    1
    12    14    30    1
    13    26    31    1
    14    20    31    1
    15    24    26   ar
    16    25    26   ar
    17    22    24   ar
    18     8    24    1
    19    23    25   ar
    20    19    25    1
    21    21    23   ar
    22     7    23    1
    23    21    22   ar
    24     5    21    1
    25     6    22    1
    26    19    20   ar
    27    17    19   ar
    28    18    20   ar
    29    16    18   ar
    30     4    18    1
    31    15    17   ar
    32     3    17    1
    33    15    16   ar
    34     1    15    1
    35     2    16    1
@<TRIPOS>SUBSTRUCTURE
     1 lig         1 TEMP              0 ****  ****    0 ROOT


########## Name:		ligand
########## HA_RMSDs:		5.2558
########## HA_RMSDh:		4.7480
########## HA_RMSDm:		0.6363
########## Cluster Size:	4
##########    Grid Score:          -31.427006
##########      Grid_vdw:          -31.373539
##########       Grid_es:           -0.053466
##########    Int_energy:            2.675937

@<TRIPOS>MOLECULE
ligand
 33 35 1 0 0
SMALL
No Charge or Current Charge


@<TRIPOS>ATOM
      1 H1         18.2754   17.4442   13.8528 H       1  lig         0.0618
      2 H2         17.6422   15.0770   13.9790 H       1  lig         0.0618
      3 H3         17.8209   19.0007   15.7464 H       1  lig         0.0624
      4 H4         16.5064   14.1197   15.9582 H       1  lig         0.0638
      5 H5         16.1882   20.6979   20.2251 H       1  lig         0.0618
      6 H6         15.0008   19.0065   21.5582 H       1  lig         0.0618
      7 H7         17.0852   20.1262   17.9721 H       1  lig         0.0624
      8 H8         14.8366   16.6479   20.8589 H       1  lig         0.0638
      9 H9         15.1772   11.7868   19.0332 H       1  lig         0.0379
     10 H10        16.5188   11.5632   20.1219 H       1  lig         0.0379
     11 H11        17.1017   13.3338   18.4629 H       1  lig         0.0288
     12 H12        16.9096   14.0787   20.0345 H       1  lig         0.0288
     13 H13        14.5618   14.7434   19.4557 H       1  lig         0.0492
     14 H14        14.7979   14.0793   17.8406 H       1  lig         0.0492
     15 C1         17.7808   17.0742   14.7465 C.ar    1  lig        -0.0611
     16 C2         17.4108   15.7236   14.8205 C.ar    1  lig        -0.0598
     17 C3         17.5286   17.9556   15.8046 C.ar    1  lig        -0.0520
     18 C4         16.7711   15.1733   15.9373 C.ar    1  lig        -0.0376
     19 C5         16.8859   17.4197   16.9209 C.ar    1  lig         0.0076
     20 C6         16.4797   16.0041   17.0254 C.ar    1  lig         0.0501
     21 C7         16.1306   19.6727   19.8651 C.ar    1  lig        -0.0611
     22 C8         15.5092   18.6966   20.6617 C.ar    1  lig        -0.0598
     23 C9         16.6239   19.3638   18.5898 C.ar    1  lig        -0.0520
     24 C10        15.3610   17.3660   20.2342 C.ar    1  lig        -0.0376
     25 C11        16.4852   18.0493   18.1641 C.ar    1  lig         0.0076
     26 C12        15.8372   16.9946   18.9756 C.ar    1  lig         0.0501
     27 C13        14.8150   12.5579   20.9653 C.2     1  lig         0.3561
     28 C14        15.7575   12.2791   19.8145 C.3     1  lig         0.0508
     29 C15        16.3668   13.5700   19.2337 C.3     1  lig        -0.0247
     30 C16        15.3117   14.5480   18.6852 C.3     1  lig         0.0244
     31 N1         15.8845   15.8300   18.2465 N.pl3   1  lig        -0.3398
     32 O1         13.5021   12.6205   20.7666 O.co2   1  lig        -0.2464
     33 O2         15.2361   12.7367   22.0990 O.co2   1  lig        -0.2464
@<TRIPOS>BOND
     1    27    33    1
     2    27    32    1
     3    27    28    1
     4    28    29    1
     5     9    28    1
     6    10    28    1
     7    29    30    1
     8    11    29    1
     9    12    29    1
    10    30    31    1
    11    13    30    1
    12    14    30    1
    13    26    31    1
    14    20    31    1
    15    24    26   ar
    16    25    26   ar
    17    22    24   ar
    18     8    24    1
    19    23    25   ar
    20    19    25    1
    21    21    23   ar
    22     7    23    1
    23    21    22   ar
    24     5    21    1
    25     6    22    1
    26    19    20   ar
    27    17    19   ar
    28    18    20   ar
    29    16    18   ar
    30     4    18    1
    31    15    17   ar
    32     3    17    1
    33    15    16   ar
    34     1    15    1
    35     2    16    1
@<TRIPOS>SUBSTRUCTURE
     1 lig         1 TEMP              0 ****  ****    0 ROOT


########## Name:		ligand
########## HA_RMSDs:		4.1391
########## HA_RMSDh:		2.3475
########## HA_RMSDm:		0.4778
########## Cluster Size:	3
##########    Grid Score:          -31.372589
##########      Grid_vdw:          -32.450222
##########       Grid_es:            1.077634
##########    Int_energy:            3.385252

@<TRIPOS>MOLECULE
ligand
 33 35 1 0 0
SMALL
No Charge or Current Charge


@<TRIPOS>ATOM
      1 H1         19.0540   18.6920   13.6886 H       1  lig         0.0618
      2 H2         16.6287   18.3316   13.7815 H       1  lig         0.0618
      3 H3         20.5157   18.1164   15.6243 H       1  lig         0.0624
      4 H4         15.5081   17.4130   15.7875 H       1  lig         0.0638
      5 H5         21.9226   16.5444   20.2237 H       1  lig         0.0618
      6 H6         20.0438   15.8983   21.6731 H       1  lig         0.0618
      7 H7         21.5051   17.3674   17.9095 H       1  lig         0.0624
      8 H8         17.7172   15.8110   20.8620 H       1  lig         0.0638
      9 H9         13.6583   16.9970   20.5024 H       1  lig         0.0379
     10 H10        12.8835   18.2555   19.5798 H       1  lig         0.0379
     11 H11        15.4292   18.3852   19.4766 H       1  lig         0.0288
     12 H12        14.7122   18.1562   17.8970 H       1  lig         0.0288
     13 H13        15.2348   15.7787   17.8740 H       1  lig         0.0492
     14 H14        15.7929   15.8377   19.5445 H       1  lig         0.0492
     15 C1         18.6126   18.2833   14.5932 C.ar    1  lig        -0.0611
     16 C2         17.2261   18.0819   14.6535 C.ar    1  lig        -0.0598
     17 C3         19.4408   17.9638   15.6757 C.ar    1  lig        -0.0520
     18 C4         16.5847   17.5599   15.7828 C.ar    1  lig        -0.0376
     19 C5         18.8120   17.4482   16.8093 C.ar    1  lig         0.0076
     20 C6         17.3547   17.2304   16.9042 C.ar    1  lig         0.0501
     21 C7         20.9114   16.5365   19.8220 C.ar    1  lig        -0.0611
     22 C8         19.8506   16.1029   20.6344 C.ar    1  lig        -0.0598
     23 C9         20.6841   17.0161   18.5244 C.ar    1  lig        -0.0520
     24 C10        18.5169   16.1130   20.1911 C.ar    1  lig        -0.0376
     25 C11        19.3689   17.0235   18.0789 C.ar    1  lig         0.0076
     26 C12        18.2265   16.5740   18.9058 C.ar    1  lig         0.0501
     27 C13        12.7565   16.2900   18.7288 C.2     1  lig         0.3561
     28 C14        13.5042   17.3651   19.4873 C.3     1  lig         0.0508
     29 C15        14.8792   17.6711   18.8622 C.3     1  lig        -0.0247
     30 C16        15.7295   16.4115   18.6150 C.3     1  lig         0.0244
     31 N1         17.0900   16.7154   18.1453 N.pl3   1  lig        -0.3398
     32 O1         12.8703   15.0117   19.0756 O.co2   1  lig        -0.2464
     33 O2         12.0374   16.5686   17.7803 O.co2   1  lig        -0.2464
@<TRIPOS>BOND
     1    27    33    1
     2    27    32    1
     3    27    28    1
     4    28    29    1
     5     9    28    1
     6    10    28    1
     7    29    30    1
     8    11    29    1
     9    12    29    1
    10    30    31    1
    11    13    30    1
    12    14    30    1
    13    26    31    1
    14    20    31    1
    15    24    26   ar
    16    25    26   ar
    17    22    24   ar
    18     8    24    1
    19    23    25   ar
    20    19    25    1
    21    21    23   ar
    22     7    23    1
    23    21    22   ar
    24     5    21    1
    25     6    22    1
    26    19    20   ar
    27    17    19   ar
    28    18    20   ar
    29    16    18   ar
    30     4    18    1
    31    15    17   ar
    32     3    17    1
    33    15    16   ar
    34     1    15    1
    35     2    16    1
@<TRIPOS>SUBSTRUCTURE
     1 lig         1 TEMP              0 ****  ****    0 ROOT


########## Name:		ligand
########## HA_RMSDs:		5.3845
########## HA_RMSDh:		4.1093
########## HA_RMSDm:		1.4050
########## Cluster Size:	1
##########    Grid Score:          -31.125731
##########      Grid_vdw:          -32.044720
##########       Grid_es:            0.918989
##########    Int_energy:            4.298613

@<TRIPOS>MOLECULE
ligand
 33 35 1 0 0
SMALL
No Charge or Current Charge


@<TRIPOS>ATOM
      1 H1         14.9993   17.7447   21.0506 H       1  lig         0.0618
      2 H2         13.9373   18.4700   18.9609 H       1  lig         0.0618
      3 H3         17.4322   17.2082   21.1390 H       1  lig         0.0624
      4 H4         15.2009   18.6809   16.8437 H       1  lig         0.0638
      5 H5         22.2060   16.4916   19.6215 H       1  lig         0.0618
      6 H6         22.5439   16.8222   17.2081 H       1  lig         0.0618
      7 H7         19.9441   16.7708   20.6281 H       1  lig         0.0624
      8 H8         20.7584   17.6524   15.7243 H       1  lig         0.0638
      9 H9         18.4294   15.9163   14.3390 H       1  lig         0.0379
     10 H10        17.4689   15.5488   15.7453 H       1  lig         0.0379
     11 H11        15.8765   17.4356   15.0861 H       1  lig         0.0288
     12 H12        16.8058   17.6709   13.6222 H       1  lig         0.0288
     13 H13        17.3674   19.3864   15.3184 H       1  lig         0.0492
     14 H14        18.7653   18.4239   14.8439 H       1  lig         0.0492
     15 C1         15.6006   17.8232   20.1492 C.ar    1  lig        -0.0611
     16 C2         14.9967   18.2308   18.9510 C.ar    1  lig        -0.0598
     17 C3         16.9659   17.5191   20.2079 C.ar    1  lig        -0.0520
     18 C4         15.7046   18.3558   17.7500 C.ar    1  lig        -0.0376
     19 C5         17.6808   17.6344   19.0153 C.ar    1  lig         0.0076
     20 C6         17.0716   18.0554   17.7380 C.ar    1  lig         0.0501
     21 C7         21.3810   16.8454   19.0064 C.ar    1  lig        -0.0611
     22 C8         21.5976   17.0961   17.6413 C.ar    1  lig        -0.0598
     23 C9         20.1086   16.9844   19.5780 C.ar    1  lig        -0.0520
     24 C10        20.5636   17.5093   16.7837 C.ar    1  lig        -0.0376
     25 C11        19.0839   17.3977   18.7368 C.ar    1  lig         0.0076
     26 C12        19.2746   17.6715   17.2947 C.ar    1  lig         0.0501
     27 C13        16.5906   14.9908   13.8689 C.2     1  lig         0.3561
     28 C14        17.4100   15.9304   14.7267 C.3     1  lig         0.0508
     29 C15        16.8842   17.3781   14.6724 C.3     1  lig        -0.0247
     30 C16        17.8094   18.3885   15.3750 C.3     1  lig         0.0244
     31 N1         18.0574   18.0603   16.7874 N.pl3   1  lig        -0.3398
     32 O1         16.5366   13.6919   14.1470 O.co2   1  lig        -0.2464
     33 O2         15.9658   15.4001   12.9011 O.co2   1  lig        -0.2464
@<TRIPOS>BOND
     1    27    33    1
     2    27    32    1
     3    27    28    1
     4    28    29    1
     5     9    28    1
     6    10    28    1
     7    29    30    1
     8    11    29    1
     9    12    29    1
    10    30    31    1
    11    13    30    1
    12    14    30    1
    13    26    31    1
    14    20    31    1
    15    24    26   ar
    16    25    26   ar
    17    22    24   ar
    18     8    24    1
    19    23    25   ar
    20    19    25    1
    21    21    23   ar
    22     7    23    1
    23    21    22   ar
    24     5    21    1
    25     6    22    1
    26    19    20   ar
    27    17    19   ar
    28    18    20   ar
    29    16    18   ar
    30     4    18    1
    31    15    17   ar
    32     3    17    1
    33    15    16   ar
    34     1    15    1
    35     2    16    1
@<TRIPOS>SUBSTRUCTURE
     1 lig         1 TEMP              0 ****  ****    0 ROOT


########## Name:		ligand
########## HA_RMSDs:		5.4811
########## HA_RMSDh:		4.4657
########## HA_RMSDm:		2.5945
########## Cluster Size:	2
##########    Grid Score:          -30.755396
##########      Grid_vdw:          -31.377552
##########       Grid_es:            0.622156
##########    Int_energy:            2.753414

@<TRIPOS>MOLECULE
ligand
 33 35 1 0 0
SMALL
No Charge or Current Charge


@<TRIPOS>ATOM
      1 H1         15.4264   13.0898   21.9585 H       1  lig         0.0618
      2 H2         14.3848   13.0095   19.7383 H       1  lig         0.0618
      3 H3         17.5099   14.3997   22.3559 H       1  lig         0.0624
      4 H4         15.3473   14.1882   17.7869 H       1  lig         0.0638
      5 H5         21.5373   17.3262   21.4500 H       1  lig         0.0618
      6 H6         21.7935   17.9645   19.0888 H       1  lig         0.0618
      7 H7         19.6416   15.8767   22.1661 H       1  lig         0.0624
      8 H8         20.1052   17.4121   17.3790 H       1  lig         0.0638
      9 H9         16.6954   19.1891   15.8700 H       1  lig         0.0379
     10 H10        18.2181   18.5904   16.4687 H       1  lig         0.0379
     11 H11        15.8526   16.7879   15.6156 H       1  lig         0.0288
     12 H12        16.0897   17.3584   17.2528 H       1  lig         0.0288
     13 H13        18.4984   16.0369   16.1390 H       1  lig         0.0492
     14 H14        17.0922   14.9830   16.2709 H       1  lig         0.0492
     15 C1         15.8888   13.6277   21.1357 C.ar    1  lig        -0.0611
     16 C2         15.3010   13.5793   19.8635 C.ar    1  lig        -0.0598
     17 C3         17.0593   14.3600   21.3678 C.ar    1  lig        -0.0520
     18 C4         15.8369   14.2455   18.7553 C.ar    1  lig        -0.0376
     19 C5         17.6061   15.0236   20.2691 C.ar    1  lig         0.0076
     20 C6         17.0132   14.9865   18.9174 C.ar    1  lig         0.0501
     21 C7         20.7708   17.0450   20.7306 C.ar    1  lig        -0.0611
     22 C8         20.8890   17.4692   19.3967 C.ar    1  lig        -0.0598
     23 C9         19.7165   16.2163   21.1391 C.ar    1  lig        -0.0520
     24 C10        19.9585   17.1010   18.4098 C.ar    1  lig        -0.0376
     25 C11        18.7908   15.8536   20.1696 C.ar    1  lig         0.0076
     26 C12        18.8825   16.2815   18.7556 C.ar    1  lig         0.0501
     27 C13        17.8297   18.1875   14.3973 C.2     1  lig         0.3561
     28 C14        17.3718   18.3343   15.8323 C.3     1  lig         0.0508
     29 C15        16.6167   17.0882   16.3340 C.3     1  lig        -0.0247
     30 C16        17.5446   15.9022   16.6551 C.3     1  lig         0.0244
     31 N1         17.8036   15.7439   18.0944 N.pl3   1  lig        -0.3398
     32 O1         16.9523   17.9556   13.4259 O.co2   1  lig        -0.2464
     33 O2         19.0121   18.2728   14.0986 O.co2   1  lig        -0.2464
@<TRIPOS>BOND
     1    27    33    1
     2    27    32    1
     3    27    28    1
     4    28    29    1
     5     9    28    1
     6    10    28    1
     7    29    30    1
     8    11    29    1
     9    12    29    1
    10    30    31    1
    11    13    30    1
    12    14    30    1
    13    26    31    1
    14    20    31    1
    15    24    26   ar
    16    25    26   ar
    17    22    24   ar
    18     8    24    1
    19    23    25   ar
    20    19    25    1
    21    21    23   ar
    22     7    23    1
    23    21    22   ar
    24     5    21    1
    25     6    22    1
    26    19    20   ar
    27    17    19   ar
    28    18    20   ar
    29    16    18   ar
    30     4    18    1
    31    15    17   ar
    32     3    17    1
    33    15    16   ar
    34     1    15    1
    35     2    16    1
@<TRIPOS>SUBSTRUCTURE
     1 lig         1 TEMP              0 ****  ****    0 ROOT


########## Name:		ligand
########## HA_RMSDs:		2.8685
########## HA_RMSDh:		2.7305
########## HA_RMSDm:		0.6553
########## Cluster Size:	3
##########    Grid Score:          -30.745647
##########      Grid_vdw:          -31.077507
##########       Grid_es:            0.331859
##########    Int_energy:            3.314134

@<TRIPOS>MOLECULE
ligand
 33 35 1 0 0
SMALL
No Charge or Current Charge


@<TRIPOS>ATOM
      1 H1         21.3698   16.1084   20.3790 H       1  lig         0.0618
      2 H2         19.3430   15.2759   21.4834 H       1  lig         0.0618
      3 H3         21.2650   17.1636   18.1229 H       1  lig         0.0624
      4 H4         17.1123   15.4111   20.4209 H       1  lig         0.0638
      5 H5         19.3736   18.8773   13.7535 H       1  lig         0.0618
      6 H6         16.9665   18.4558   13.4770 H       1  lig         0.0618
      7 H7         20.5576   18.1237   15.8121 H       1  lig         0.0624
      8 H8         15.5774   17.4949   15.2731 H       1  lig         0.0638
      9 H9         12.7474   17.5696   19.7660 H       1  lig         0.0379
     10 H10        12.7222   17.3310   18.0403 H       1  lig         0.0379
     11 H11        15.0966   17.0857   19.9889 H       1  lig         0.0288
     12 H12        14.9233   18.1820   18.6362 H       1  lig         0.0288
     13 H13        14.9121   16.1163   17.0905 H       1  lig         0.0492
     14 H14        15.4547   15.1968   18.4925 H       1  lig         0.0492
     15 C1         20.4143   16.1945   19.8693 C.ar    1  lig        -0.0611
     16 C2         19.2542   15.7141   20.4936 C.ar    1  lig        -0.0598
     17 C3         20.3649   16.7877   18.6021 C.ar    1  lig        -0.0520
     18 C4         17.9883   15.7895   19.9011 C.ar    1  lig        -0.0376
     19 C5         19.1091   16.8631   17.9991 C.ar    1  lig         0.0076
     20 C6         17.8716   16.3612   18.6289 C.ar    1  lig         0.0501
     21 C7         18.8073   18.4367   14.5716 C.ar    1  lig        -0.0611
     22 C8         17.4206   18.2596   14.4328 C.ar    1  lig        -0.0598
     23 C9         19.4843   18.0014   15.7194 C.ar    1  lig        -0.0520
     24 C10        16.6403   17.6543   15.4329 C.ar    1  lig        -0.0376
     25 C11        18.7178   17.4074   16.7134 C.ar    1  lig         0.0076
     26 C12        17.2557   17.2048   16.6025 C.ar    1  lig         0.0501
     27 C13        12.7809   15.5329   19.2096 C.2     1  lig         0.3561
     28 C14        13.1787   16.9719   18.9620 C.3     1  lig         0.0508
     29 C15        14.7076   17.1647   18.9729 C.3     1  lig        -0.0247
     30 C16        15.4505   16.1922   18.0385 C.3     1  lig         0.0244
     31 N1         16.8370   16.5999   17.7639 N.pl3   1  lig        -0.3398
     32 O1         11.7211   15.0082   18.6024 O.co2   1  lig        -0.2464
     33 O2         13.4180   14.8230   19.9742 O.co2   1  lig        -0.2464
@<TRIPOS>BOND
     1    27    33    1
     2    27    32    1
     3    27    28    1
     4    28    29    1
     5     9    28    1
     6    10    28    1
     7    29    30    1
     8    11    29    1
     9    12    29    1
    10    30    31    1
    11    13    30    1
    12    14    30    1
    13    26    31    1
    14    20    31    1
    15    24    26   ar
    16    25    26   ar
    17    22    24   ar
    18     8    24    1
    19    23    25   ar
    20    19    25    1
    21    21    23   ar
    22     7    23    1
    23    21    22   ar
    24     5    21    1
    25     6    22    1
    26    19    20   ar
    27    17    19   ar
    28    18    20   ar
    29    16    18   ar
    30     4    18    1
    31    15    17   ar
    32     3    17    1
    33    15    16   ar
    34     1    15    1
    35     2    16    1
@<TRIPOS>SUBSTRUCTURE
     1 lig         1 TEMP              0 ****  ****    0 ROOT


########## Name:		ligand
########## HA_RMSDs:		4.3183
########## HA_RMSDh:		3.8934
########## HA_RMSDm:		0.1727
########## Cluster Size:	5
##########    Grid Score:          -30.702488
##########      Grid_vdw:          -31.112936
##########       Grid_es:            0.410449
##########    Int_energy:            6.527723

@<TRIPOS>MOLECULE
ligand
 33 35 1 0 0
SMALL
No Charge or Current Charge


@<TRIPOS>ATOM
      1 H1         19.2304   18.2658   14.2665 H       1  lig         0.0618
      2 H2         21.0265   17.8327   15.8811 H       1  lig         0.0618
      3 H3         16.8340   18.0471   14.9179 H       1  lig         0.0624
      4 H4         20.5658   17.1366   18.2106 H       1  lig         0.0638
      5 H5         12.7329   17.1214   17.7339 H       1  lig         0.0618
      6 H6         13.2427   16.3115   19.9993 H       1  lig         0.0618
      7 H7         14.5730   17.6416   16.1368 H       1  lig         0.0624
      8 H8         15.5447   16.1914   20.8739 H       1  lig         0.0638
      9 H9         17.5675   14.2118   18.9880 H       1  lig         0.0379
     10 H10        18.5460   12.9529   19.6901 H       1  lig         0.0379
     11 H11        19.9551   14.9783   19.5043 H       1  lig         0.0288
     12 H12        19.5805   14.7610   21.1997 H       1  lig         0.0288
     13 H13        19.3483   17.1397   20.4900 H       1  lig         0.0492
     14 H14        17.8738   16.4675   21.1823 H       1  lig         0.0492
     15 C1         18.9732   17.9651   15.2782 C.ar    1  lig        -0.0611
     16 C2         19.9964   17.7098   16.2026 C.ar    1  lig        -0.0598
     17 C3         17.6249   17.8438   15.6351 C.ar    1  lig        -0.0520
     18 C4         19.7445   17.3190   17.5229 C.ar    1  lig        -0.0376
     19 C5         17.3616   17.4490   16.9470 C.ar    1  lig         0.0076
     20 C6         18.4172   17.1680   17.9404 C.ar    1  lig         0.0501
     21 C7         13.7675   17.0728   18.0676 C.ar    1  lig        -0.0611
     22 C8         14.0486   16.6729   19.3845 C.ar    1  lig        -0.0598
     23 C9         14.7965   17.3520   17.1574 C.ar    1  lig        -0.0520
     24 C10        15.3642   16.5447   19.8623 C.ar    1  lig        -0.0376
     25 C11        16.0985   17.2324   17.6253 C.ar    1  lig         0.0076
     26 C12        16.4327   16.8145   19.0054 C.ar    1  lig         0.0501
     27 C13        17.0520   13.7795   20.9895 C.2     1  lig         0.3561
     28 C14        18.0918   13.9207   19.8990 C.3     1  lig         0.0508
     29 C15        19.1398   15.0014   20.2287 C.3     1  lig        -0.0247
     30 C16        18.5450   16.4186   20.3197 C.3     1  lig         0.0244
     31 N1         17.8034   16.8130   19.1120 N.pl3   1  lig        -0.3398
     32 O1         15.8133   13.3937   20.6995 O.co2   1  lig        -0.2464
     33 O2         17.3227   14.0205   22.1570 O.co2   1  lig        -0.2464
@<TRIPOS>BOND
     1    27    33    1
     2    27    32    1
     3    27    28    1
     4    28    29    1
     5     9    28    1
     6    10    28    1
     7    29    30    1
     8    11    29    1
     9    12    29    1
    10    30    31    1
    11    13    30    1
    12    14    30    1
    13    26    31    1
    14    20    31    1
    15    24    26   ar
    16    25    26   ar
    17    22    24   ar
    18     8    24    1
    19    23    25   ar
    20    19    25    1
    21    21    23   ar
    22     7    23    1
    23    21    22   ar
    24     5    21    1
    25     6    22    1
    26    19    20   ar
    27    17    19   ar
    28    18    20   ar
    29    16    18   ar
    30     4    18    1
    31    15    17   ar
    32     3    17    1
    33    15    16   ar
    34     1    15    1
    35     2    16    1
@<TRIPOS>SUBSTRUCTURE
     1 lig         1 TEMP              0 ****  ****    0 ROOT


########## Name:		ligand
########## HA_RMSDs:		4.8524
########## HA_RMSDh:		4.3430
########## HA_RMSDm:		2.5769
########## Cluster Size:	3
##########    Grid Score:          -30.549568
##########      Grid_vdw:          -30.657396
##########       Grid_es:            0.107827
##########    Int_energy:            4.864101

@<TRIPOS>MOLECULE
ligand
 33 35 1 0 0
SMALL
No Charge or Current Charge


@<TRIPOS>ATOM
      1 H1         13.1198   13.4903   20.0527 H       1  lig         0.0618
      2 H2         14.8419   12.5387   21.5187 H       1  lig         0.0618
      3 H3         13.7047   15.1566   18.2931 H       1  lig         0.0624
      4 H4         17.2229   13.1921   21.3526 H       1  lig         0.0638
      5 H5         16.4625   18.3007   15.4445 H       1  lig         0.0618
      6 H6         18.8305   18.4182   16.0980 H       1  lig         0.0618
      7 H7         14.8810   16.8351   16.6928 H       1  lig         0.0624
      8 H8         19.7978   16.9569   17.8322 H       1  lig         0.0638
      9 H9         20.6881   17.1133   22.2321 H       1  lig         0.0379
     10 H10        20.7100   17.1021   20.4901 H       1  lig         0.0379
     11 H11        18.4558   15.6003   21.8942 H       1  lig         0.0288
     12 H12        20.0696   14.9414   22.0470 H       1  lig         0.0288
     13 H13        19.4446   13.8062   20.1538 H       1  lig         0.0492
     14 H14        20.1535   15.2351   19.4048 H       1  lig         0.0492
     15 C1         14.1515   13.8098   19.9361 C.ar    1  lig        -0.0611
     16 C2         15.1383   13.2738   20.7761 C.ar    1  lig        -0.0598
     17 C3         14.4708   14.7466   18.9460 C.ar    1  lig        -0.0520
     18 C4         16.4875   13.6354   20.6867 C.ar    1  lig        -0.0376
     19 C5         15.8119   15.1193   18.8513 C.ar    1  lig         0.0076
     20 C6         16.8716   14.5768   19.7248 C.ar    1  lig         0.0501
     21 C7         16.8377   17.6443   16.2271 C.ar    1  lig        -0.0611
     22 C8         18.2046   17.6686   16.5501 C.ar    1  lig        -0.0598
     23 C9         15.9380   16.8348   16.9345 C.ar    1  lig        -0.0520
     24 C10        18.7433   16.8803   17.5816 C.ar    1  lig        -0.0376
     25 C11        16.4652   16.0496   17.9513 C.ar    1  lig         0.0076
     26 C12        17.8989   16.0486   18.3193 C.ar    1  lig         0.0501
     27 C13        19.0097   18.0658   21.3753 C.2     1  lig         0.3561
     28 C14        20.0576   16.9743   21.3530 C.3     1  lig         0.0508
     29 C15        19.4345   15.5660   21.4136 C.3     1  lig        -0.0247
     30 C16        19.3305   14.8866   20.0358 C.3     1  lig         0.0244
     31 N1         18.0556   15.1561   19.3532 N.pl3   1  lig        -0.3398
     32 O1         18.9209   18.8997   22.4068 O.co2   1  lig        -0.2464
     33 O2         18.2198   18.2036   20.4525 O.co2   1  lig        -0.2464
@<TRIPOS>BOND
     1    27    33    1
     2    27    32    1
     3    27    28    1
     4    28    29    1
     5     9    28    1
     6    10    28    1
     7    29    30    1
     8    11    29    1
     9    12    29    1
    10    30    31    1
    11    13    30    1
    12    14    30    1
    13    26    31    1
    14    20    31    1
    15    24    26   ar
    16    25    26   ar
    17    22    24   ar
    18     8    24    1
    19    23    25   ar
    20    19    25    1
    21    21    23   ar
    22     7    23    1
    23    21    22   ar
    24     5    21    1
    25     6    22    1
    26    19    20   ar
    27    17    19   ar
    28    18    20   ar
    29    16    18   ar
    30     4    18    1
    31    15    17   ar
    32     3    17    1
    33    15    16   ar
    34     1    15    1
    35     2    16    1
@<TRIPOS>SUBSTRUCTURE
     1 lig         1 TEMP              0 ****  ****    0 ROOT


########## Name:		ligand
########## HA_RMSDs:		4.9972
########## HA_RMSDh:		4.0131
########## HA_RMSDm:		2.9619
########## Cluster Size:	5
##########    Grid Score:          -30.134287
##########      Grid_vdw:          -30.430428
##########       Grid_es:            0.296140
##########    Int_energy:            6.514835

@<TRIPOS>MOLECULE
ligand
 33 35 1 0 0
SMALL
No Charge or Current Charge


@<TRIPOS>ATOM
      1 H1         15.4429   12.6074   22.4435 H       1  lig         0.0618
      2 H2         13.6853   13.0131   20.7801 H       1  lig         0.0618
      3 H3         17.6987   13.6427   22.2107 H       1  lig         0.0624
      4 H4         14.0575   14.4336   18.7883 H       1  lig         0.0638
      5 H5         21.5260   16.3285   20.2758 H       1  lig         0.0618
      6 H6         21.0224   17.3526   18.0974 H       1  lig         0.0618
      7 H7         19.8163   14.9422   21.4430 H       1  lig         0.0624
      8 H8         18.7787   17.2599   17.0795 H       1  lig         0.0638
      9 H9         15.4772   17.8603   19.3099 H       1  lig         0.0379
     10 H10        14.6590   19.1452   18.4643 H       1  lig         0.0379
     11 H11        16.4903   18.2260   17.0261 H       1  lig         0.0288
     12 H12        14.9425   17.8260   16.3147 H       1  lig         0.0288
     13 H13        16.5485   15.9017   16.2850 H       1  lig         0.0492
     14 H14        15.0131   15.5492   17.0748 H       1  lig         0.0492
     15 C1         15.6580   13.2417   21.5882 C.ar    1  lig        -0.0611
     16 C2         14.6589   13.4711   20.6313 C.ar    1  lig        -0.0598
     17 C3         16.9279   13.8182   21.4650 C.ar    1  lig        -0.0520
     18 C4         14.8599   14.2756   19.5037 C.ar    1  lig        -0.0376
     19 C5         17.1420   14.6175   20.3418 C.ar    1  lig         0.0076
     20 C6         16.1118   14.8726   19.3153 C.ar    1  lig         0.0501
     21 C7         20.5230   16.2464   19.8619 C.ar    1  lig        -0.0611
     22 C8         20.2232   16.8896   18.6495 C.ar    1  lig        -0.0598
     23 C9         19.5724   15.4515   20.5174 C.ar    1  lig        -0.0520
     24 C10        18.9616   16.7839   18.0391 C.ar    1  lig        -0.0376
     25 C11        18.3222   15.3476   19.9219 C.ar    1  lig         0.0076
     26 C12        17.9702   16.0110   18.6463 C.ar    1  lig         0.0501
     27 C13        13.5481   17.3184   18.6440 C.2     1  lig         0.3561
     28 C14        14.8455   18.0721   18.4464 C.3     1  lig         0.0508
     29 C15        15.5901   17.6275   17.1725 C.3     1  lig        -0.0247
     30 C16        15.9377   16.1275   17.1627 C.3     1  lig         0.0244
     31 N1         16.6619   15.6940   18.3675 N.pl3   1  lig        -0.3398
     32 O1         13.1942   16.8819   19.8488 O.co2   1  lig        -0.2464
     33 O2         12.8001   17.0891   17.7047 O.co2   1  lig        -0.2464
@<TRIPOS>BOND
     1    27    33    1
     2    27    32    1
     3    27    28    1
     4    28    29    1
     5     9    28    1
     6    10    28    1
     7    29    30    1
     8    11    29    1
     9    12    29    1
    10    30    31    1
    11    13    30    1
    12    14    30    1
    13    26    31    1
    14    20    31    1
    15    24    26   ar
    16    25    26   ar
    17    22    24   ar
    18     8    24    1
    19    23    25   ar
    20    19    25    1
    21    21    23   ar
    22     7    23    1
    23    21    22   ar
    24     5    21    1
    25     6    22    1
    26    19    20   ar
    27    17    19   ar
    28    18    20   ar
    29    16    18   ar
    30     4    18    1
    31    15    17   ar
    32     3    17    1
    33    15    16   ar
    34     1    15    1
    35     2    16    1
@<TRIPOS>SUBSTRUCTURE
     1 lig         1 TEMP              0 ****  ****    0 ROOT


########## Name:		ligand
########## HA_RMSDs:		4.4880
########## HA_RMSDh:		3.6119
########## HA_RMSDm:		0.5289
########## Cluster Size:	3
##########    Grid Score:          -30.129808
##########      Grid_vdw:          -29.869762
##########       Grid_es:           -0.260046
##########    Int_energy:            5.249530

@<TRIPOS>MOLECULE
ligand
 33 35 1 0 0
SMALL
No Charge or Current Charge


@<TRIPOS>ATOM
      1 H1         17.2020   18.1654   14.4036 H       1  lig         0.0618
      2 H2         19.5173   18.7463   14.9716 H       1  lig         0.0618
      3 H3         15.8870   16.5884   15.8173 H       1  lig         0.0624
      4 H4         20.6715   17.7899   16.9405 H       1  lig         0.0638
      5 H5         14.7443   13.3473   19.5313 H       1  lig         0.0618
      6 H6         16.6262   12.8528   21.0354 H       1  lig         0.0618
      7 H7         15.0413   14.9053   17.6099 H       1  lig         0.0624
      8 H8         18.7929   14.0174   20.8695 H       1  lig         0.0638
      9 H9         19.2492   16.2188   21.4356 H       1  lig         0.0379
     10 H10        20.3418   17.1728   22.4007 H       1  lig         0.0379
     11 H11        21.8193   17.2008   20.5876 H       1  lig         0.0288
     12 H12        20.6032   18.0540   19.6631 H       1  lig         0.0288
     13 H13        20.7355   15.0156   19.8760 H       1  lig         0.0492
     14 H14        21.3584   15.9684   18.5307 H       1  lig         0.0492
     15 C1         17.6611   17.7189   15.2811 C.ar    1  lig        -0.0611
     16 C2         18.9863   18.0425   15.6060 C.ar    1  lig        -0.0598
     17 C3         16.9155   16.8336   16.0687 C.ar    1  lig        -0.0520
     18 C4         19.6455   17.5088   16.7194 C.ar    1  lig        -0.0376
     19 C5         17.5641   16.2905   17.1781 C.ar    1  lig         0.0076
     20 C6         18.9594   16.6078   17.5420 C.ar    1  lig         0.0501
     21 C7         15.6860   13.8782   19.4071 C.ar    1  lig        -0.0611
     22 C8         16.7354   13.6403   20.3101 C.ar    1  lig        -0.0598
     23 C9         15.8491   14.7408   18.3141 C.ar    1  lig        -0.0520
     24 C10        17.9908   14.2582   20.1771 C.ar    1  lig        -0.0376
     25 C11        17.0856   15.3584   18.1805 C.ar    1  lig         0.0076
     26 C12        18.2136   15.1326   19.1120 C.ar    1  lig         0.0501
     27 C13        18.8201   18.2854   21.3759 C.2     1  lig         0.3561
     28 C14        19.8176   17.1495   21.4460 C.3     1  lig         0.0508
     29 C15        20.7847   17.1475   20.2461 C.3     1  lig        -0.0247
     30 C16        20.5916   15.9398   19.3107 C.3     1  lig         0.0244
     31 N1         19.2644   15.9054   18.6774 N.pl3   1  lig        -0.3398
     32 O1         17.8445   18.2763   20.4730 O.co2   1  lig        -0.2464
     33 O2         18.8897   19.2367   22.1405 O.co2   1  lig        -0.2464
@<TRIPOS>BOND
     1    27    33    1
     2    27    32    1
     3    27    28    1
     4    28    29    1
     5     9    28    1
     6    10    28    1
     7    29    30    1
     8    11    29    1
     9    12    29    1
    10    30    31    1
    11    13    30    1
    12    14    30    1
    13    26    31    1
    14    20    31    1
    15    24    26   ar
    16    25    26   ar
    17    22    24   ar
    18     8    24    1
    19    23    25   ar
    20    19    25    1
    21    21    23   ar
    22     7    23    1
    23    21    22   ar
    24     5    21    1
    25     6    22    1
    26    19    20   ar
    27    17    19   ar
    28    18    20   ar
    29    16    18   ar
    30     4    18    1
    31    15    17   ar
    32     3    17    1
    33    15    16   ar
    34     1    15    1
    35     2    16    1
@<TRIPOS>SUBSTRUCTURE
     1 lig         1 TEMP              0 ****  ****    0 ROOT


########## Name:		ligand
########## HA_RMSDs:		5.2678
########## HA_RMSDh:		4.8013
########## HA_RMSDm:		0.7516
########## Cluster Size:	2
##########    Grid Score:          -30.001793
##########      Grid_vdw:          -29.733727
##########       Grid_es:           -0.268066
##########    Int_energy:            5.696146

@<TRIPOS>MOLECULE
ligand
 33 35 1 0 0
SMALL
No Charge or Current Charge


@<TRIPOS>ATOM
      1 H1         16.7468   19.0354   15.1212 H       1  lig         0.0618
      2 H2         18.9721   18.1720   15.6896 H       1  lig         0.0618
      3 H3         14.6986   18.1405   16.2252 H       1  lig         0.0624
      4 H4         19.3016   16.3676   17.3507 H       1  lig         0.0638
      5 H5         11.7512   15.3094   19.2089 H       1  lig         0.0618
      6 H6         12.9745   13.5966   20.4808 H       1  lig         0.0618
      7 H7         12.9643   16.8318   17.6539 H       1  lig         0.0624
      8 H8         15.4352   13.4439   20.4653 H       1  lig         0.0638
      9 H9         18.2301   16.8834   20.5738 H       1  lig         0.0379
     10 H10        19.1608   16.4022   21.9657 H       1  lig         0.0379
     11 H11        17.5125   14.6053   21.3578 H       1  lig         0.0288
     12 H12        19.1441   14.0288   21.0977 H       1  lig         0.0288
     13 H13        17.8200   13.3399   19.1955 H       1  lig         0.0492
     14 H14        18.9862   14.5515   18.6688 H       1  lig         0.0492
     15 C1         16.8361   18.2438   15.8598 C.ar    1  lig        -0.0611
     16 C2         18.1052   17.7424   16.1830 C.ar    1  lig        -0.0598
     17 C3         15.6805   17.7466   16.4741 C.ar    1  lig        -0.0520
     18 C4         18.3007   16.7244   17.1236 C.ar    1  lig        -0.0376
     19 C5         15.8624   16.7274   17.4092 C.ar    1  lig         0.0076
     20 C6         17.1846   16.1756   17.7658 C.ar    1  lig         0.0501
     21 C7         12.8375   15.2742   19.1566 C.ar    1  lig        -0.0611
     22 C8         13.5348   14.3369   19.9367 C.ar    1  lig        -0.0598
     23 C9         13.5102   16.1238   18.2672 C.ar    1  lig        -0.0520
     24 C10        14.9334   14.2092   19.8795 C.ar    1  lig        -0.0376
     25 C11        14.8926   16.0060   18.2103 C.ar    1  lig         0.0076
     26 C12        15.6608   15.0313   19.0170 C.ar    1  lig         0.0501
     27 C13        20.2270   16.3832   20.1039 C.2     1  lig         0.3561
     28 C14        18.9718   16.1626   20.9200 C.3     1  lig         0.0508
     29 C15        18.3994   14.7434   20.7378 C.3     1  lig        -0.0247
     30 C16        18.0856   14.3973   19.2707 C.3     1  lig         0.0244
     31 N1         16.9897   15.2016   18.7085 N.pl3   1  lig        -0.3398
     32 O1         20.4807   17.5680   19.5569 O.co2   1  lig        -0.2464
     33 O2         21.0316   15.4806   19.9241 O.co2   1  lig        -0.2464
@<TRIPOS>BOND
     1    27    33    1
     2    27    32    1
     3    27    28    1
     4    28    29    1
     5     9    28    1
     6    10    28    1
     7    29    30    1
     8    11    29    1
     9    12    29    1
    10    30    31    1
    11    13    30    1
    12    14    30    1
    13    26    31    1
    14    20    31    1
    15    24    26   ar
    16    25    26   ar
    17    22    24   ar
    18     8    24    1
    19    23    25   ar
    20    19    25    1
    21    21    23   ar
    22     7    23    1
    23    21    22   ar
    24     5    21    1
    25     6    22    1
    26    19    20   ar
    27    17    19   ar
    28    18    20   ar
    29    16    18   ar
    30     4    18    1
    31    15    17   ar
    32     3    17    1
    33    15    16   ar
    34     1    15    1
    35     2    16    1
@<TRIPOS>SUBSTRUCTURE
     1 lig         1 TEMP              0 ****  ****    0 ROOT


########## Name:		ligand
########## HA_RMSDs:		4.7381
########## HA_RMSDh:		4.6209
########## HA_RMSDm:		1.7382
########## Cluster Size:	1
##########    Grid Score:          -29.919306
##########      Grid_vdw:          -30.559475
##########       Grid_es:            0.640170
##########    Int_energy:            3.850708

@<TRIPOS>MOLECULE
ligand
 33 35 1 0 0
SMALL
No Charge or Current Charge


@<TRIPOS>ATOM
      1 H1         20.7385   17.3728   21.7539 H       1  lig         0.0618
      2 H2         19.1837   19.2335   21.3787 H       1  lig         0.0618
      3 H3         20.0798   15.0228   21.2455 H       1  lig         0.0624
      4 H4         16.8930   18.8831   20.5105 H       1  lig         0.0638
      5 H5         17.2549   11.0747   19.8181 H       1  lig         0.0618
      6 H6         14.9502   11.6707   19.2006 H       1  lig         0.0618
      7 H7         18.8534   12.8314   20.5704 H       1  lig         0.0624
      8 H8         14.1780   14.0087   19.0728 H       1  lig         0.0638
      9 H9         15.0166   18.7094   16.7949 H       1  lig         0.0379
     10 H10        16.2450   18.3727   17.9836 H       1  lig         0.0379
     11 H11        14.3693   16.0808   17.6470 H       1  lig         0.0288
     12 H12        13.5037   17.5674   17.9674 H       1  lig         0.0288
     13 H13        13.9102   16.5070   20.0971 H       1  lig         0.0492
     14 H14        14.8844   17.9726   20.0050 H       1  lig         0.0492
     15 C1         19.7445   17.1641   21.3685 C.ar    1  lig        -0.0611
     16 C2         18.8500   18.2236   21.1588 C.ar    1  lig        -0.0598
     17 C3         19.3827   15.8414   21.0866 C.ar    1  lig        -0.0520
     18 C4         17.5540   18.0345   20.6651 C.ar    1  lig        -0.0376
     19 C5         18.0910   15.6399   20.5995 C.ar    1  lig         0.0076
     20 C6         17.1258   16.7342   20.3739 C.ar    1  lig         0.0501
     21 C7         16.9589   12.1215   19.7912 C.ar    1  lig        -0.0611
     22 C8         15.6611   12.4600   19.3736 C.ar    1  lig        -0.0598
     23 C9         17.8596   13.1014   20.2312 C.ar    1  lig        -0.0520
     24 C10        15.2023   13.7885   19.3611 C.ar    1  lig        -0.0376
     25 C11        17.4139   14.4165   20.2160 C.ar    1  lig         0.0076
     26 C12        16.0546   14.8107   19.7824 C.ar    1  lig         0.0501
     27 C13        16.2480   17.0747   16.2752 C.2     1  lig         0.3561
     28 C14        15.5245   17.8984   17.3184 C.3     1  lig         0.0508
     29 C15        14.4721   17.0744   18.0854 C.3     1  lig        -0.0247
     30 C16        14.7645   16.9661   19.5933 C.3     1  lig         0.0244
     31 N1         15.9701   16.1784   19.8933 N.pl3   1  lig        -0.3398
     32 O1         16.2180   17.4258   14.9934 O.co2   1  lig        -0.2464
     33 O2         16.8702   16.0685   16.5833 O.co2   1  lig        -0.2464
@<TRIPOS>BOND
     1    27    33    1
     2    27    32    1
     3    27    28    1
     4    28    29    1
     5     9    28    1
     6    10    28    1
     7    29    30    1
     8    11    29    1
     9    12    29    1
    10    30    31    1
    11    13    30    1
    12    14    30    1
    13    26    31    1
    14    20    31    1
    15    24    26   ar
    16    25    26   ar
    17    22    24   ar
    18     8    24    1
    19    23    25   ar
    20    19    25    1
    21    21    23   ar
    22     7    23    1
    23    21    22   ar
    24     5    21    1
    25     6    22    1
    26    19    20   ar
    27    17    19   ar
    28    18    20   ar
    29    16    18   ar
    30     4    18    1
    31    15    17   ar
    32     3    17    1
    33    15    16   ar
    34     1    15    1
    35     2    16    1
@<TRIPOS>SUBSTRUCTURE
     1 lig         1 TEMP              0 ****  ****    0 ROOT


########## Name:		ligand
########## HA_RMSDs:		5.1062
########## HA_RMSDh:		4.8608
########## HA_RMSDm:		1.5106
########## Cluster Size:	2
##########    Grid Score:          -29.306311
##########      Grid_vdw:          -29.050257
##########       Grid_es:           -0.256055
##########    Int_energy:            2.451338

@<TRIPOS>MOLECULE
ligand
 33 35 1 0 0
SMALL
No Charge or Current Charge


@<TRIPOS>ATOM
      1 H1         20.4003   14.4123   21.7018 H       1  lig         0.0618
      2 H2         21.1016   15.9069   19.8866 H       1  lig         0.0618
      3 H3         18.0277   13.6791   21.9210 H       1  lig         0.0624
      4 H4         19.5072   16.7811   18.2082 H       1  lig         0.0638
      5 H5         13.0736   13.2485   20.9849 H       1  lig         0.0618
      6 H6         12.2897   14.6370   19.1126 H       1  lig         0.0618
      7 H7         15.4706   13.2829   21.6633 H       1  lig         0.0624
      8 H8         13.8320   15.9318   17.6901 H       1  lig         0.0638
      9 H9         17.5061   16.6792   13.8134 H       1  lig         0.0379
     10 H10        16.2689   17.7227   14.4580 H       1  lig         0.0379
     11 H11        18.0122   15.6988   16.0180 H       1  lig         0.0288
     12 H12        16.3139   15.5277   15.6327 H       1  lig         0.0288
     13 H13        15.6760   17.3669   17.0950 H       1  lig         0.0492
     14 H14        17.3639   17.7721   17.3984 H       1  lig         0.0492
     15 C1         19.6600   14.7655   20.9894 C.ar    1  lig        -0.0611
     16 C2         20.0548   15.6253   19.9543 C.ar    1  lig        -0.0598
     17 C3         18.3298   14.3494   21.1207 C.ar    1  lig        -0.0520
     18 C4         19.1602   16.1217   18.9990 C.ar    1  lig        -0.0376
     19 C5         17.4277   14.8426   20.1776 C.ar    1  lig         0.0076
     20 C6         17.8125   15.7530   19.0808 C.ar    1  lig         0.0501
     21 C7         13.7933   13.8138   20.3963 C.ar    1  lig        -0.0611
     22 C8         13.3482   14.5523   19.2873 C.ar    1  lig        -0.0598
     23 C9         15.1371   13.8398   20.7949 C.ar    1  lig        -0.0520
     24 C10        14.2191   15.3399   18.5150 C.ar    1  lig        -0.0376
     25 C11        16.0036   14.6120   20.0324 C.ar    1  lig         0.0076
     26 C12        15.5709   15.4022   18.8579 C.ar    1  lig         0.0501
     27 C13        18.2818   18.2877   14.9403 C.2     1  lig         0.3561
     28 C14        17.2150   17.2411   14.7017 C.3     1  lig         0.0508
     29 C15        17.0863   16.2596   15.8829 C.3     1  lig        -0.0247
     30 C16        16.6778   16.9431   17.2006 C.3     1  lig         0.0244
     31 N1         16.6856   16.0287   18.3529 N.pl3   1  lig        -0.3398
     32 O1         19.5704   17.9793   14.8327 O.co2   1  lig        -0.2464
     33 O2         17.9863   19.4351   15.2414 O.co2   1  lig        -0.2464
@<TRIPOS>BOND
     1    27    33    1
     2    27    32    1
     3    27    28    1
     4    28    29    1
     5     9    28    1
     6    10    28    1
     7    29    30    1
     8    11    29    1
     9    12    29    1
    10    30    31    1
    11    13    30    1
    12    14    30    1
    13    26    31    1
    14    20    31    1
    15    24    26   ar
    16    25    26   ar
    17    22    24   ar
    18     8    24    1
    19    23    25   ar
    20    19    25    1
    21    21    23   ar
    22     7    23    1
    23    21    22   ar
    24     5    21    1
    25     6    22    1
    26    19    20   ar
    27    17    19   ar
    28    18    20   ar
    29    16    18   ar
    30     4    18    1
    31    15    17   ar
    32     3    17    1
    33    15    16   ar
    34     1    15    1
    35     2    16    1
@<TRIPOS>SUBSTRUCTURE
     1 lig         1 TEMP              0 ****  ****    0 ROOT


########## Name:		ligand
########## HA_RMSDs:		6.1669
########## HA_RMSDh:		5.8896
########## HA_RMSDm:		3.5950
########## Cluster Size:	1
##########    Grid Score:          -28.801788
##########      Grid_vdw:          -27.998783
##########       Grid_es:           -0.803005
##########    Int_energy:            6.702866

@<TRIPOS>MOLECULE
ligand
 33 35 1 0 0
SMALL
No Charge or Current Charge


@<TRIPOS>ATOM
      1 H1         12.9490   19.0929   19.4686 H       1  lig         0.0618
      2 H2         15.0323   19.6486   20.6396 H       1  lig         0.0618
      3 H3         12.3836   16.7329   18.8978 H       1  lig         0.0624
      4 H4         16.6816   17.9213   21.2877 H       1  lig         0.0638
      5 H5         12.8031   11.7083   18.4704 H       1  lig         0.0618
      6 H6         14.9338   10.8120   19.3098 H       1  lig         0.0618
      7 H7         12.3450   14.1559   18.5519 H       1  lig         0.0624
      8 H8         16.5988   12.2198   20.4610 H       1  lig         0.0638
      9 H9         19.6524   14.7724   18.6045 H       1  lig         0.0379
     10 H10        18.3383   13.7289   19.0730 H       1  lig         0.0379
     11 H11        18.6005   16.5692   20.2296 H       1  lig         0.0288
     12 H12        19.5813   15.2644   20.8599 H       1  lig         0.0288
     13 H13        17.4952   15.6349   22.1961 H       1  lig         0.0492
     14 H14        17.6798   13.9902   21.5908 H       1  lig         0.0492
     15 C1         13.6380   18.2956   19.7327 C.ar    1  lig        -0.0611
     16 C2         14.8332   18.6090   20.3960 C.ar    1  lig        -0.0598
     17 C3         13.3129   16.9733   19.4074 C.ar    1  lig        -0.0520
     18 C4         15.7698   17.6380   20.7690 C.ar    1  lig        -0.0376
     19 C5         14.2418   15.9972   19.7690 C.ar    1  lig         0.0076
     20 C6         15.5103   16.2972   20.4625 C.ar    1  lig         0.0501
     21 C7         13.5120   12.3745   18.9580 C.ar    1  lig        -0.0611
     22 C8         14.6975   11.8455   19.4948 C.ar    1  lig        -0.0598
     23 C9         13.2531   13.7520   18.9851 C.ar    1  lig        -0.0520
     24 C10        15.6744   12.6584   20.0950 C.ar    1  lig        -0.0376
     25 C11        14.2122   14.5597   19.5818 C.ar    1  lig         0.0076
     26 C12        15.4720   14.0382   20.1580 C.ar    1  lig         0.0501
     27 C13        17.7651   15.4836   17.9794 C.2     1  lig         0.3561
     28 C14        18.6341   14.7744   18.9952 C.3     1  lig         0.0508
     29 C15        18.6342   15.4869   20.3617 C.3     1  lig        -0.0247
     30 C16        17.4949   15.0255   21.2889 C.3     1  lig         0.0244
     31 N1         16.1674   15.1122   20.6610 N.pl3   1  lig        -0.3398
     32 O1         17.0988   14.7946   17.0582 O.co2   1  lig        -0.2464
     33 O2         17.6591   16.7015   17.9777 O.co2   1  lig        -0.2464
@<TRIPOS>BOND
     1    27    33    1
     2    27    32    1
     3    27    28    1
     4    28    29    1
     5     9    28    1
     6    10    28    1
     7    29    30    1
     8    11    29    1
     9    12    29    1
    10    30    31    1
    11    13    30    1
    12    14    30    1
    13    26    31    1
    14    20    31    1
    15    24    26   ar
    16    25    26   ar
    17    22    24   ar
    18     8    24    1
    19    23    25   ar
    20    19    25    1
    21    21    23   ar
    22     7    23    1
    23    21    22   ar
    24     5    21    1
    25     6    22    1
    26    19    20   ar
    27    17    19   ar
    28    18    20   ar
    29    16    18   ar
    30     4    18    1
    31    15    17   ar
    32     3    17    1
    33    15    16   ar
    34     1    15    1
    35     2    16    1
@<TRIPOS>SUBSTRUCTURE
     1 lig         1 TEMP              0 ****  ****    0 ROOT


########## Name:		ligand
########## HA_RMSDs:		5.9024
########## HA_RMSDh:		5.6884
########## HA_RMSDm:		3.8668
########## Cluster Size:	1
##########    Grid Score:          -28.520618
##########      Grid_vdw:          -28.685226
##########       Grid_es:            0.164608
##########    Int_energy:            9.637400

@<TRIPOS>MOLECULE
ligand
 33 35 1 0 0
SMALL
No Charge or Current Charge


@<TRIPOS>ATOM
      1 H1         14.0746   10.4098   19.6754 H       1  lig         0.0618
      2 H2         16.5217   10.2304   19.6836 H       1  lig         0.0618
      3 H3         12.9454   12.5890   19.2383 H       1  lig         0.0624
      4 H4         17.9883   12.1843   19.2899 H       1  lig         0.0638
      5 H5         12.3218   17.5208   18.2934 H       1  lig         0.0618
      6 H6         14.4272   18.7865   18.1777 H       1  lig         0.0618
      7 H7         12.3456   15.0734   18.7589 H       1  lig         0.0624
      8 H8         16.6347   17.6936   18.2834 H       1  lig         0.0638
      9 H9         18.8832   13.9298   21.0485 H       1  lig         0.0379
     10 H10        19.2700   15.2602   22.1048 H       1  lig         0.0379
     11 H11        19.7534   16.1773   19.9309 H       1  lig         0.0288
     12 H12        18.1130   16.7243   20.1988 H       1  lig         0.0288
     13 H13        18.8081   14.2126   18.6170 H       1  lig         0.0492
     14 H14        18.4468   15.7862   17.9107 H       1  lig         0.0492
     15 C1         14.6724   11.2987   19.4943 C.ar    1  lig        -0.0611
     16 C2         16.0714   11.2025   19.5047 C.ar    1  lig        -0.0598
     17 C3         14.0299   12.5184   19.2507 C.ar    1  lig        -0.0520
     18 C4         16.9082   12.3018   19.2798 C.ar    1  lig        -0.0376
     19 C5         14.8538   13.6226   19.0310 C.ar    1  lig         0.0076
     20 C6         16.3286   13.5533   19.0414 C.ar    1  lig         0.0501
     21 C7         13.2710   16.9930   18.3603 C.ar    1  lig        -0.0611
     22 C8         14.4702   17.7123   18.2268 C.ar    1  lig        -0.0598
     23 C9         13.2747   15.6190   18.6380 C.ar    1  lig        -0.0520
     24 C10        15.7283   17.0979   18.3498 C.ar    1  lig        -0.0376
     25 C11        14.5148   15.0052   18.7553 C.ar    1  lig         0.0076
     26 C12        15.7983   15.7302   18.6204 C.ar    1  lig         0.0501
     27 C13        17.1741   14.8961   21.8255 C.2     1  lig         0.3561
     28 C14        18.5952   14.9492   21.3081 C.3     1  lig         0.0508
     29 C15        18.7259   15.8313   20.0513 C.3     1  lig        -0.0247
     30 C16        18.2418   15.1353   18.7660 C.3     1  lig         0.0244
     31 N1         16.8070   14.8115   18.7891 N.pl3   1  lig        -0.3398
     32 O1         16.7462   13.8507   22.5265 O.co2   1  lig        -0.2464
     33 O2         16.3871   15.8060   21.6082 O.co2   1  lig        -0.2464
@<TRIPOS>BOND
     1    27    33    1
     2    27    32    1
     3    27    28    1
     4    28    29    1
     5     9    28    1
     6    10    28    1
     7    29    30    1
     8    11    29    1
     9    12    29    1
    10    30    31    1
    11    13    30    1
    12    14    30    1
    13    26    31    1
    14    20    31    1
    15    24    26   ar
    16    25    26   ar
    17    22    24   ar
    18     8    24    1
    19    23    25   ar
    20    19    25    1
    21    21    23   ar
    22     7    23    1
    23    21    22   ar
    24     5    21    1
    25     6    22    1
    26    19    20   ar
    27    17    19   ar
    28    18    20   ar
    29    16    18   ar
    30     4    18    1
    31    15    17   ar
    32     3    17    1
    33    15    16   ar
    34     1    15    1
    35     2    16    1
@<TRIPOS>SUBSTRUCTURE
     1 lig         1 TEMP              0 ****  ****    0 ROOT


########## Name:		ligand
########## HA_RMSDs:		6.2472
########## HA_RMSDh:		5.5819
########## HA_RMSDm:		3.6548
########## Cluster Size:	2
##########    Grid Score:          -28.328337
##########      Grid_vdw:          -28.133368
##########       Grid_es:           -0.194969
##########    Int_energy:            6.111113

@<TRIPOS>MOLECULE
ligand
 33 35 1 0 0
SMALL
No Charge or Current Charge


@<TRIPOS>ATOM
      1 H1         11.7026   14.4886   18.4494 H       1  lig         0.0618
      2 H2         12.9770   12.6025   19.3653 H       1  lig         0.0618
      3 H3         12.5978   16.8134   18.5435 H       1  lig         0.0624
      4 H4         15.1834   12.9023   20.4449 H       1  lig         0.0638
      5 H5         15.6914   20.6841   19.5691 H       1  lig         0.0618
      6 H6         17.6939   20.0469   20.8465 H       1  lig         0.0618
      7 H7         13.9965   18.9689   18.9425 H       1  lig         0.0624
      8 H8         18.2391   17.6993   21.3665 H       1  lig         0.0638
      9 H9         19.8332   14.3694   18.8995 H       1  lig         0.0379
     10 H10        18.5749   15.5729   18.8395 H       1  lig         0.0379
     11 H11        18.9379   13.3244   20.9301 H       1  lig         0.0288
     12 H12        17.6924   13.4255   19.7052 H       1  lig         0.0288
     13 H13        17.9512   15.4213   21.9949 H       1  lig         0.0492
     14 H14        16.8631   14.0351   21.9839 H       1  lig         0.0492
     15 C1         12.6682   14.6749   18.9109 C.ar    1  lig        -0.0611
     16 C2         13.3972   13.6011   19.4419 C.ar    1  lig        -0.0598
     17 C3         13.1628   15.9837   18.9602 C.ar    1  lig        -0.0520
     18 C4         14.6471   13.7614   20.0511 C.ar    1  lig        -0.0376
     19 C5         14.4053   16.1567   19.5706 C.ar    1  lig         0.0076
     20 C6         15.1930   15.0470   20.1432 C.ar    1  lig         0.0501
     21 C7         15.8794   19.6345   19.7862 C.ar    1  lig        -0.0611
     22 C8         17.0581   19.2703   20.4580 C.ar    1  lig        -0.0598
     23 C9         14.9129   18.6786   19.4439 C.ar    1  lig        -0.0520
     24 C10        17.3376   17.9384   20.8090 C.ar    1  lig        -0.0376
     25 C11        15.1859   17.3600   19.7833 C.ar    1  lig         0.0076
     26 C12        16.4164   16.9391   20.4902 C.ar    1  lig         0.0501
     27 C13        20.0492   15.8694   20.3698 C.2     1  lig         0.3561
     28 C14        19.1724   14.9718   19.5239 C.3     1  lig         0.0508
     29 C15        18.3085   14.0253   20.3800 C.3     1  lig        -0.0247
     30 C16        17.3651   14.7674   21.3444 C.3     1  lig         0.0244
     31 N1         16.3494   15.5755   20.6520 N.pl3   1  lig        -0.3398
     32 O1         20.4974   17.0259   19.8913 O.co2   1  lig        -0.2464
     33 O2         20.3697   15.5523   21.5062 O.co2   1  lig        -0.2464
@<TRIPOS>BOND
     1    27    33    1
     2    27    32    1
     3    27    28    1
     4    28    29    1
     5     9    28    1
     6    10    28    1
     7    29    30    1
     8    11    29    1
     9    12    29    1
    10    30    31    1
    11    13    30    1
    12    14    30    1
    13    26    31    1
    14    20    31    1
    15    24    26   ar
    16    25    26   ar
    17    22    24   ar
    18     8    24    1
    19    23    25   ar
    20    19    25    1
    21    21    23   ar
    22     7    23    1
    23    21    22   ar
    24     5    21    1
    25     6    22    1
    26    19    20   ar
    27    17    19   ar
    28    18    20   ar
    29    16    18   ar
    30     4    18    1
    31    15    17   ar
    32     3    17    1
    33    15    16   ar
    34     1    15    1
    35     2    16    1
@<TRIPOS>SUBSTRUCTURE
     1 lig         1 TEMP              0 ****  ****    0 ROOT


########## Name:		ligand
########## HA_RMSDs:		6.5991
########## HA_RMSDh:		5.5630
########## HA_RMSDm:		3.0407
########## Cluster Size:	1
##########    Grid Score:          -28.307535
##########      Grid_vdw:          -28.074778
##########       Grid_es:           -0.232758
##########    Int_energy:            7.889192

@<TRIPOS>MOLECULE
ligand
 33 35 1 0 0
SMALL
No Charge or Current Charge


@<TRIPOS>ATOM
      1 H1         11.7306   17.4359   17.9379 H       1  lig         0.0618
      2 H2         11.4495   15.0459   18.4166 H       1  lig         0.0618
      3 H3         13.7936   18.6530   18.6291 H       1  lig         0.0624
      4 H4         13.1655   13.7318   19.6217 H       1  lig         0.0638
      5 H5         18.3309   19.5430   20.6847 H       1  lig         0.0618
      6 H6         19.2962   17.6018   21.8458 H       1  lig         0.0618
      7 H7         16.0968   19.3777   19.5944 H       1  lig         0.0624
      8 H8         18.2404   15.3742   21.8001 H       1  lig         0.0638
      9 H9         17.6383   12.3727   18.3390 H       1  lig         0.0379
     10 H10        17.0760   14.0190   18.4327 H       1  lig         0.0379
     11 H11        16.4858   11.6985   20.3861 H       1  lig         0.0288
     12 H12        15.3527   12.4822   19.3072 H       1  lig         0.0288
     13 H13        16.5903   13.6886   21.8081 H       1  lig         0.0492
     14 H14        14.8934   13.3258   21.5012 H       1  lig         0.0492
     15 C1         12.5162   16.9050   18.4681 C.ar    1  lig        -0.0611
     16 C2         12.3572   15.5406   18.7499 C.ar    1  lig        -0.0598
     17 C3         13.6709   17.5966   18.8533 C.ar    1  lig        -0.0520
     18 C4         13.3240   14.7892   19.4280 C.ar    1  lig        -0.0376
     19 C5         14.6393   16.8594   19.5353 C.ar    1  lig         0.0076
     20 C6         14.4976   15.4241   19.8511 C.ar    1  lig         0.0501
     21 C7         17.8179   18.5841   20.6472 C.ar    1  lig        -0.0611
     22 C8         18.4069   17.4633   21.2556 C.ar    1  lig        -0.0598
     23 C9         16.5543   18.5043   20.0454 C.ar    1  lig        -0.0520
     24 C10        17.7743   16.2085   21.2829 C.ar    1  lig        -0.0376
     25 C11        15.9267   17.2657   20.0644 C.ar    1  lig         0.0076
     26 C12        16.5164   16.0635   20.6951 C.ar    1  lig         0.0501
     27 C13        18.6170   13.4998   19.8324 C.2     1  lig         0.3561
     28 C14        17.3720   13.1645   19.0401 C.3     1  lig         0.0508
     29 C15        16.2268   12.6594   19.9392 C.3     1  lig        -0.0247
     30 C16        15.8215   13.6657   21.0318 C.3     1  lig         0.0244
     31 N1         15.6271   15.0302   20.5177 N.pl3   1  lig        -0.3398
     32 O1         19.4469   14.4530   19.4202 O.co2   1  lig        -0.2464
     33 O2         18.8916   12.9017   20.8626 O.co2   1  lig        -0.2464
@<TRIPOS>BOND
     1    27    33    1
     2    27    32    1
     3    27    28    1
     4    28    29    1
     5     9    28    1
     6    10    28    1
     7    29    30    1
     8    11    29    1
     9    12    29    1
    10    30    31    1
    11    13    30    1
    12    14    30    1
    13    26    31    1
    14    20    31    1
    15    24    26   ar
    16    25    26   ar
    17    22    24   ar
    18     8    24    1
    19    23    25   ar
    20    19    25    1
    21    21    23   ar
    22     7    23    1
    23    21    22   ar
    24     5    21    1
    25     6    22    1
    26    19    20   ar
    27    17    19   ar
    28    18    20   ar
    29    16    18   ar
    30     4    18    1
    31    15    17   ar
    32     3    17    1
    33    15    16   ar
    34     1    15    1
    35     2    16    1
@<TRIPOS>SUBSTRUCTURE
     1 lig         1 TEMP              0 ****  ****    0 ROOT


########## Name:		ligand
########## HA_RMSDs:		3.1095
########## HA_RMSDh:		3.0703
########## HA_RMSDm:		1.9637
########## Cluster Size:	1
##########    Grid Score:          -28.182961
##########      Grid_vdw:          -27.407349
##########       Grid_es:           -0.775612
##########    Int_energy:            4.423820

@<TRIPOS>MOLECULE
ligand
 33 35 1 0 0
SMALL
No Charge or Current Charge


@<TRIPOS>ATOM
      1 H1         18.3397   12.7650   20.4341 H       1  lig         0.0618
      2 H2         18.1665   14.7145   21.9139 H       1  lig         0.0618
      3 H3         17.9467   12.9724   17.9810 H       1  lig         0.0624
      4 H4         17.5727   16.9631   21.0684 H       1  lig         0.0638
      5 H5         16.8278   15.0355   13.4981 H       1  lig         0.0618
      6 H6         16.2037   17.4109   13.6231 H       1  lig         0.0618
      7 H7         17.4141   13.7751   15.5657 H       1  lig         0.0624
      8 H8         16.3428   18.7063   15.7163 H       1  lig         0.0638
      9 H9         14.9121   17.0059   19.7295 H       1  lig         0.0379
     10 H10        15.0790   18.1667   21.0179 H       1  lig         0.0379
     11 H11        15.1673   20.0262   19.2940 H       1  lig         0.0288
     12 H12        14.7848   18.8668   18.0404 H       1  lig         0.0288
     13 H13        17.3588   18.8313   19.6741 H       1  lig         0.0492
     14 H14        17.1907   19.4425   18.0298 H       1  lig         0.0492
     15 C1         18.0783   13.7308   20.0109 C.ar    1  lig        -0.0611
     16 C2         17.9714   14.8465   20.8537 C.ar    1  lig        -0.0598
     17 C3         17.8584   13.8379   18.6325 C.ar    1  lig        -0.0520
     18 C4         17.6393   16.1223   20.3833 C.ar    1  lig        -0.0376
     19 C5         17.5207   15.1037   18.1528 C.ar    1  lig         0.0076
     20 C6         17.3954   16.2950   19.0159 C.ar    1  lig         0.0501
     21 C7         16.8920   15.5590   14.4498 C.ar    1  lig        -0.0611
     22 C8         16.5984   16.9318   14.5022 C.ar    1  lig        -0.0598
     23 C9         17.2073   14.8384   15.6102 C.ar    1  lig        -0.0520
     24 C10        16.6173   17.6550   15.7072 C.ar    1  lig        -0.0376
     25 C11        17.2329   15.5488   16.8032 C.ar    1  lig         0.0076
     26 C12        16.9300   16.9946   16.8967 C.ar    1  lig         0.0501
     27 C13        13.1651   18.1482   20.0483 C.2     1  lig         0.3561
     28 C14        14.6735   18.0309   20.0160 C.3     1  lig         0.0508
     29 C15        15.3113   18.9883   18.9906 C.3     1  lig        -0.0247
     30 C16        16.8042   18.7062   18.7408 C.3     1  lig         0.0244
     31 N1         17.0575   17.3550   18.2173 N.pl3   1  lig        -0.3398
     32 O1         12.4116   17.1113   20.4011 O.co2   1  lig        -0.2464
     33 O2         12.6050   19.1923   19.7472 O.co2   1  lig        -0.2464
@<TRIPOS>BOND
     1    27    33    1
     2    27    32    1
     3    27    28    1
     4    28    29    1
     5     9    28    1
     6    10    28    1
     7    29    30    1
     8    11    29    1
     9    12    29    1
    10    30    31    1
    11    13    30    1
    12    14    30    1
    13    26    31    1
    14    20    31    1
    15    24    26   ar
    16    25    26   ar
    17    22    24   ar
    18     8    24    1
    19    23    25   ar
    20    19    25    1
    21    21    23   ar
    22     7    23    1
    23    21    22   ar
    24     5    21    1
    25     6    22    1
    26    19    20   ar
    27    17    19   ar
    28    18    20   ar
    29    16    18   ar
    30     4    18    1
    31    15    17   ar
    32     3    17    1
    33    15    16   ar
    34     1    15    1
    35     2    16    1
@<TRIPOS>SUBSTRUCTURE
     1 lig         1 TEMP              0 ****  ****    0 ROOT


########## Name:		ligand
########## HA_RMSDs:		6.2904
########## HA_RMSDh:		5.6837
########## HA_RMSDm:		2.1186
########## Cluster Size:	1
##########    Grid Score:          -28.163288
##########      Grid_vdw:          -28.335077
##########       Grid_es:            0.171790
##########    Int_energy:           10.087667

@<TRIPOS>MOLECULE
ligand
 33 35 1 0 0
SMALL
No Charge or Current Charge


@<TRIPOS>ATOM
      1 H1         12.4557   17.6013   18.0828 H       1  lig         0.0618
      2 H2         14.5932   18.8036   18.0038 H       1  lig         0.0618
      3 H3         12.3724   15.1534   18.5474 H       1  lig         0.0624
      4 H4         16.7615   17.6623   18.3500 H       1  lig         0.0638
      5 H5         13.9306   10.4341   19.4986 H       1  lig         0.0618
      6 H6         16.3766   10.1844   19.5500 H       1  lig         0.0618
      7 H7         12.8990   12.6547   19.0383 H       1  lig         0.0624
      8 H8         17.9063   12.1107   19.3826 H       1  lig         0.0638
      9 H9         18.9569   13.9944   21.2034 H       1  lig         0.0379
     10 H10        19.2136   15.3848   22.2212 H       1  lig         0.0379
     11 H11        19.7607   16.1885   19.9991 H       1  lig         0.0288
     12 H12        18.1172   16.7394   20.2381 H       1  lig         0.0288
     13 H13        18.8233   14.1746   18.7493 H       1  lig         0.0492
     14 H14        18.4765   15.7235   17.9837 H       1  lig         0.0492
     15 C1         13.3794   17.0526   18.2443 C.ar    1  lig        -0.0611
     16 C2         14.6039   17.7342   18.1934 C.ar    1  lig        -0.0598
     17 C3         13.3232   15.6780   18.5037 C.ar    1  lig        -0.0520
     18 C4         15.8344   17.0971   18.3913 C.ar    1  lig        -0.0376
     19 C5         14.5441   15.0310   18.6967 C.ar    1  lig         0.0076
     20 C6         15.8486   15.7204   18.6435 C.ar    1  lig         0.0501
     21 C7         14.5632   11.3145   19.4053 C.ar    1  lig        -0.0611
     22 C8         15.9576   11.1744   19.5021 C.ar    1  lig        -0.0598
     23 C9         13.9748   12.5569   19.1308 C.ar    1  lig        -0.0520
     24 C10        16.8312   12.2640   19.3440 C.ar    1  lig        -0.0376
     25 C11        14.8327   13.6383   18.9789 C.ar    1  lig         0.0076
     26 C12        16.3057   13.5289   19.0746 C.ar    1  lig         0.0501
     27 C13        17.1585   14.8823   21.8638 C.2     1  lig         0.3561
     28 C14        18.5967   15.0032   21.4085 C.3     1  lig         0.0508
     29 C15        18.7333   15.8438   20.1241 C.3     1  lig        -0.0247
     30 C16        18.2596   15.1044   18.8594 C.3     1  lig         0.0244
     31 N1         16.8232   14.7875   18.8788 N.pl3   1  lig        -0.3398
     32 O1         16.7500   13.8158   22.5441 O.co2   1  lig        -0.2464
     33 O2         16.3402   15.7554   21.6138 O.co2   1  lig        -0.2464
@<TRIPOS>BOND
     1    27    33    1
     2    27    32    1
     3    27    28    1
     4    28    29    1
     5     9    28    1
     6    10    28    1
     7    29    30    1
     8    11    29    1
     9    12    29    1
    10    30    31    1
    11    13    30    1
    12    14    30    1
    13    26    31    1
    14    20    31    1
    15    24    26   ar
    16    25    26   ar
    17    22    24   ar
    18     8    24    1
    19    23    25   ar
    20    19    25    1
    21    21    23   ar
    22     7    23    1
    23    21    22   ar
    24     5    21    1
    25     6    22    1
    26    19    20   ar
    27    17    19   ar
    28    18    20   ar
    29    16    18   ar
    30     4    18    1
    31    15    17   ar
    32     3    17    1
    33    15    16   ar
    34     1    15    1
    35     2    16    1
@<TRIPOS>SUBSTRUCTURE
     1 lig         1 TEMP              0 ****  ****    0 ROOT


########## Name:		ligand
########## HA_RMSDs:		4.8290
########## HA_RMSDh:		4.1014
########## HA_RMSDm:		2.7507
########## Cluster Size:	1
##########    Grid Score:          -28.138885
##########      Grid_vdw:          -28.484165
##########       Grid_es:            0.345280
##########    Int_energy:            4.245453

@<TRIPOS>MOLECULE
ligand
 33 35 1 0 0
SMALL
No Charge or Current Charge


@<TRIPOS>ATOM
      1 H1         16.8111   11.2761   19.5943 H       1  lig         0.0618
      2 H2         14.6458   12.3301   20.0645 H       1  lig         0.0618
      3 H3         18.9050   12.6255   19.4961 H       1  lig         0.0624
      4 H4         14.4182   14.7660   20.4363 H       1  lig         0.0638
      5 H5         21.9928   16.6332   19.5878 H       1  lig         0.0618
      6 H6         20.8319   18.7776   19.9068 H       1  lig         0.0618
      7 H7         20.7039   14.5032   19.4928 H       1  lig         0.0624
      8 H8         18.4142   18.9163   20.3697 H       1  lig         0.0638
      9 H9         14.2571   16.4668   18.7597 H       1  lig         0.0379
     10 H10        13.6005   17.8850   17.9899 H       1  lig         0.0379
     11 H11        14.7709   19.1532   19.5694 H       1  lig         0.0288
     12 H12        16.2471   18.5925   18.8156 H       1  lig         0.0288
     13 H13        14.8461   16.9588   20.9662 H       1  lig         0.0492
     14 H14        16.0639   18.1796   21.3293 H       1  lig         0.0492
     15 C1         16.7670   12.3499   19.7526 C.ar    1  lig        -0.0611
     16 C2         15.5308   12.9579   20.0149 C.ar    1  lig        -0.0598
     17 C3         17.9477   13.1000   19.6947 C.ar    1  lig        -0.0520
     18 C4         15.3937   14.3342   20.2295 C.ar    1  lig        -0.0376
     19 C5         17.8226   14.4741   19.9012 C.ar    1  lig         0.0076
     20 C6         16.5347   15.1429   20.1736 C.ar    1  lig         0.0501
     21 C7         20.9208   16.6419   19.7744 C.ar    1  lig        -0.0611
     22 C8         20.2745   17.8643   20.0220 C.ar    1  lig        -0.0598
     23 C9         20.2016   15.4407   19.7033 C.ar    1  lig        -0.0520
     24 C10        18.8860   17.9485   20.2236 C.ar    1  lig        -0.0376
     25 C11        18.8301   15.5168   19.9071 C.ar    1  lig         0.0076
     26 C12        18.1152   16.7858   20.1707 C.ar    1  lig         0.0501
     27 C13        15.3532   17.0699   17.0588 C.2     1  lig         0.3561
     28 C14        14.5346   17.4090   18.2856 C.3     1  lig         0.0508
     29 C15        15.3279   18.2545   19.3009 C.3     1  lig        -0.0247
     30 C16        15.7240   17.4725   20.5667 C.3     1  lig         0.0244
     31 N1         16.7836   16.4809   20.3257 N.pl3   1  lig        -0.3398
     32 O1         15.8415   15.8455   16.8864 O.co2   1  lig        -0.2464
     33 O2         15.5888   17.9107   16.2031 O.co2   1  lig        -0.2464
@<TRIPOS>BOND
     1    27    33    1
     2    27    32    1
     3    27    28    1
     4    28    29    1
     5     9    28    1
     6    10    28    1
     7    29    30    1
     8    11    29    1
     9    12    29    1
    10    30    31    1
    11    13    30    1
    12    14    30    1
    13    26    31    1
    14    20    31    1
    15    24    26   ar
    16    25    26   ar
    17    22    24   ar
    18     8    24    1
    19    23    25   ar
    20    19    25    1
    21    21    23   ar
    22     7    23    1
    23    21    22   ar
    24     5    21    1
    25     6    22    1
    26    19    20   ar
    27    17    19   ar
    28    18    20   ar
    29    16    18   ar
    30     4    18    1
    31    15    17   ar
    32     3    17    1
    33    15    16   ar
    34     1    15    1
    35     2    16    1
@<TRIPOS>SUBSTRUCTURE
     1 lig         1 TEMP              0 ****  ****    0 ROOT


########## Name:		ligand
########## HA_RMSDs:		3.2945
########## HA_RMSDh:		2.8898
########## HA_RMSDm:		1.3833
########## Cluster Size:	1
##########    Grid Score:          -28.059902
##########      Grid_vdw:          -28.314461
##########       Grid_es:            0.254559
##########    Int_energy:            3.925416

@<TRIPOS>MOLECULE
ligand
 33 35 1 0 0
SMALL
No Charge or Current Charge


@<TRIPOS>ATOM
      1 H1         19.9630   15.0919   22.6647 H       1  lig         0.0618
      2 H2         17.7230   14.1043   22.4985 H       1  lig         0.0618
      3 H3         20.9531   16.3635   20.7627 H       1  lig         0.0624
      4 H4         16.3490   14.2897   20.4488 H       1  lig         0.0638
      5 H5         21.4499   18.4564   16.1825 H       1  lig         0.0618
      6 H6         19.5625   18.0055   14.6717 H       1  lig         0.0618
      7 H7         21.4626   17.5310   18.4957 H       1  lig         0.0624
      8 H8         17.5230   16.8369   15.4158 H       1  lig         0.0638
      9 H9         14.3222   15.6117   19.7447 H       1  lig         0.0379
     10 H10        15.4779   16.9111   19.8502 H       1  lig         0.0379
     11 H11        15.2077   17.2238   17.2955 H       1  lig         0.0288
     12 H12        14.0663   15.8976   17.3142 H       1  lig         0.0288
     13 H13        16.1962   15.0296   16.5519 H       1  lig         0.0492
     14 H14        15.8183   14.3358   18.1271 H       1  lig         0.0492
     15 C1         19.4004   15.2049   21.7422 C.ar    1  lig        -0.0611
     16 C2         18.1225   14.6364   21.6401 C.ar    1  lig        -0.0598
     17 C3         19.9646   15.9198   20.6789 C.ar    1  lig        -0.0520
     18 C4         17.3375   14.7394   20.4858 C.ar    1  lig        -0.0376
     19 C5         19.1937   16.0240   19.5208 C.ar    1  lig         0.0076
     20 C6         17.8484   15.4317   19.3819 C.ar    1  lig         0.0501
     21 C7         20.5780   17.9228   16.5555 C.ar    1  lig        -0.0611
     22 C8         19.4754   17.7265   15.7074 C.ar    1  lig        -0.0598
     23 C9         20.6005   17.3923   17.8529 C.ar    1  lig        -0.0520
     24 C10        18.3391   17.0057   16.1132 C.ar    1  lig        -0.0376
     25 C11        19.4783   16.6837   18.2614 C.ar    1  lig         0.0076
     26 C12        18.2987   16.4573   17.3963 C.ar    1  lig         0.0501
     27 C13        13.4602   17.5152   19.4410 C.2     1  lig         0.3561
     28 C14        14.6188   16.5544   19.2834 C.3     1  lig         0.0508
     29 C15        14.9609   16.2908   17.8040 C.3     1  lig        -0.0247
     30 C16        16.0915   15.2630   17.6144 C.3     1  lig         0.0244
     31 N1         17.3891   15.7298   18.1266 N.pl3   1  lig        -0.3398
     32 O1         13.3672   18.2951   20.5135 O.co2   1  lig        -0.2464
     33 O2         12.5833   17.5935   18.5929 O.co2   1  lig        -0.2464
@<TRIPOS>BOND
     1    27    33    1
     2    27    32    1
     3    27    28    1
     4    28    29    1
     5     9    28    1
     6    10    28    1
     7    29    30    1
     8    11    29    1
     9    12    29    1
    10    30    31    1
    11    13    30    1
    12    14    30    1
    13    26    31    1
    14    20    31    1
    15    24    26   ar
    16    25    26   ar
    17    22    24   ar
    18     8    24    1
    19    23    25   ar
    20    19    25    1
    21    21    23   ar
    22     7    23    1
    23    21    22   ar
    24     5    21    1
    25     6    22    1
    26    19    20   ar
    27    17    19   ar
    28    18    20   ar
    29    16    18   ar
    30     4    18    1
    31    15    17   ar
    32     3    17    1
    33    15    16   ar
    34     1    15    1
    35     2    16    1
@<TRIPOS>SUBSTRUCTURE
     1 lig         1 TEMP              0 ****  ****    0 ROOT


########## Name:		ligand
########## HA_RMSDs:		4.8477
########## HA_RMSDh:		4.3389
########## HA_RMSDm:		2.9191
########## Cluster Size:	1
##########    Grid Score:          -27.828905
##########      Grid_vdw:          -28.071854
##########       Grid_es:            0.242948
##########    Int_energy:            9.581269

@<TRIPOS>MOLECULE
ligand
 33 35 1 0 0
SMALL
No Charge or Current Charge


@<TRIPOS>ATOM
      1 H1         15.8700   11.4529   20.4752 H       1  lig         0.0618
      2 H2         13.5068   12.1128   20.4748 H       1  lig         0.0618
      3 H3         17.6193   12.9315   19.4911 H       1  lig         0.0624
      4 H4         12.7335   14.2451   19.4852 H       1  lig         0.0638
      5 H5         19.7455   16.8787   17.1449 H       1  lig         0.0618
      6 H6         18.1289   18.5507   16.3454 H       1  lig         0.0618
      7 H7         18.9608   14.8291   18.3244 H       1  lig         0.0624
      8 H8         15.7207   18.4112   16.8552 H       1  lig         0.0638
      9 H9         14.7182   18.8697   18.7228 H       1  lig         0.0379
     10 H10        13.6070   19.7194   19.7614 H       1  lig         0.0379
     11 H11        12.0266   18.1687   18.9756 H       1  lig         0.0288
     12 H12        12.8147   17.0489   20.0650 H       1  lig         0.0288
     13 H13        13.5176   17.3905   17.1187 H       1  lig         0.0492
     14 H14        12.6144   16.0551   17.8303 H       1  lig         0.0492
     15 C1         15.5842   12.4015   20.0297 C.ar    1  lig        -0.0611
     16 C2         14.2339   12.7800   20.0210 C.ar    1  lig        -0.0598
     17 C3         16.5730   13.2252   19.4785 C.ar    1  lig        -0.0520
     18 C4         13.7884   13.9854   19.4664 C.ar    1  lig        -0.0376
     19 C5         16.1401   14.4269   18.9173 C.ar    1  lig         0.0076
     20 C6         14.7257   14.8494   18.8884 C.ar    1  lig         0.0501
     21 C7         18.6901   16.7637   17.3840 C.ar    1  lig        -0.0611
     22 C8         17.7806   17.7559   16.9819 C.ar    1  lig        -0.0598
     23 C9         18.2559   15.6000   18.0338 C.ar    1  lig        -0.0520
     24 C10        16.3996   17.6445   17.2185 C.ar    1  lig        -0.0376
     25 C11        16.8931   15.4866   18.2752 C.ar    1  lig         0.0076
     26 C12        15.9058   16.5111   17.8670 C.ar    1  lig         0.0501
     27 C13        14.8843   18.3080   20.7515 C.2     1  lig         0.3561
     28 C14        14.0433   18.7398   19.5697 C.3     1  lig         0.0508
     29 C15        12.9812   17.6882   19.1942 C.3     1  lig        -0.0247
     30 C16        13.4064   16.7853   18.0218 C.3     1  lig         0.0244
     31 N1         14.6677   16.0703   18.2706 N.pl3   1  lig        -0.3398
     32 O1         15.3987   19.2087   21.5830 O.co2   1  lig        -0.2464
     33 O2         15.1144   17.1267   20.9664 O.co2   1  lig        -0.2464
@<TRIPOS>BOND
     1    27    33    1
     2    27    32    1
     3    27    28    1
     4    28    29    1
     5     9    28    1
     6    10    28    1
     7    29    30    1
     8    11    29    1
     9    12    29    1
    10    30    31    1
    11    13    30    1
    12    14    30    1
    13    26    31    1
    14    20    31    1
    15    24    26   ar
    16    25    26   ar
    17    22    24   ar
    18     8    24    1
    19    23    25   ar
    20    19    25    1
    21    21    23   ar
    22     7    23    1
    23    21    22   ar
    24     5    21    1
    25     6    22    1
    26    19    20   ar
    27    17    19   ar
    28    18    20   ar
    29    16    18   ar
    30     4    18    1
    31    15    17   ar
    32     3    17    1
    33    15    16   ar
    34     1    15    1
    35     2    16    1
@<TRIPOS>SUBSTRUCTURE
     1 lig         1 TEMP              0 ****  ****    0 ROOT


########## Name:		ligand
########## HA_RMSDs:		4.4676
########## HA_RMSDh:		3.0740
########## HA_RMSDm:		0.9209
########## Cluster Size:	1
##########    Grid Score:          -27.640562
##########      Grid_vdw:          -26.789583
##########       Grid_es:           -0.850978
##########    Int_energy:            3.484138

@<TRIPOS>MOLECULE
ligand
 33 35 1 0 0
SMALL
No Charge or Current Charge


@<TRIPOS>ATOM
      1 H1         16.7478   14.9294   13.5738 H       1  lig         0.0618
      2 H2         16.1921   17.3168   13.6828 H       1  lig         0.0618
      3 H3         17.4014   13.6654   15.6207 H       1  lig         0.0624
      4 H4         16.2745   18.5943   15.8005 H       1  lig         0.0638
      5 H5         18.5293   12.6940   20.4569 H       1  lig         0.0618
      6 H6         18.4747   14.6774   21.9099 H       1  lig         0.0618
      7 H7         18.0244   12.8974   18.0257 H       1  lig         0.0624
      8 H8         17.7118   16.8815   21.1107 H       1  lig         0.0638
      9 H9         15.0201   17.2424   20.0994 H       1  lig         0.0379
     10 H10        14.9987   18.6888   21.0705 H       1  lig         0.0379
     11 H11        15.2754   20.0936   19.0353 H       1  lig         0.0288
     12 H12        14.8513   18.7402   18.0104 H       1  lig         0.0288
     13 H13        17.3831   18.7537   19.7024 H       1  lig         0.0492
     14 H14        17.3202   19.3198   18.0347 H       1  lig         0.0492
     15 C1         16.7975   15.4426   14.5300 C.ar    1  lig        -0.0611
     16 C2         16.4874   16.8086   14.5962 C.ar    1  lig        -0.0598
     17 C3         17.1664   14.7251   15.6742 C.ar    1  lig        -0.0520
     18 C4         16.5283   17.5379   15.7902 C.ar    1  lig        -0.0376
     19 C5         17.2164   15.4430   16.8694 C.ar    1  lig         0.0076
     20 C6         16.9011   16.8819   16.9691 C.ar    1  lig         0.0501
     21 C7         18.1990   13.6484   20.0520 C.ar    1  lig        -0.0611
     22 C8         18.1061   14.7626   20.9024 C.ar    1  lig        -0.0598
     23 C9         17.9322   13.7570   18.6800 C.ar    1  lig        -0.0520
     24 C10        17.7313   16.0329   20.4321 C.ar    1  lig        -0.0376
     25 C11        17.5561   15.0085   18.2104 C.ar    1  lig         0.0076
     26 C12        17.4471   16.2042   19.0761 C.ar    1  lig         0.0501
     27 C13        13.1904   18.2904   19.9865 C.2     1  lig         0.3561
     28 C14        14.6992   18.2848   20.1042 C.3     1  lig         0.0508
     29 C15        15.3787   19.0129   18.9281 C.3     1  lig        -0.0247
     30 C16        16.8600   18.6322   18.7506 C.3     1  lig         0.0244
     31 N1         17.0496   17.2516   18.2793 N.pl3   1  lig        -0.3398
     32 O1         12.4750   17.2449   20.3893 O.co2   1  lig        -0.2464
     33 O2         12.5960   19.2494   19.5158 O.co2   1  lig        -0.2464
@<TRIPOS>BOND
     1    27    33    1
     2    27    32    1
     3    27    28    1
     4    28    29    1
     5     9    28    1
     6    10    28    1
     7    29    30    1
     8    11    29    1
     9    12    29    1
    10    30    31    1
    11    13    30    1
    12    14    30    1
    13    26    31    1
    14    20    31    1
    15    24    26   ar
    16    25    26   ar
    17    22    24   ar
    18     8    24    1
    19    23    25   ar
    20    19    25    1
    21    21    23   ar
    22     7    23    1
    23    21    22   ar
    24     5    21    1
    25     6    22    1
    26    19    20   ar
    27    17    19   ar
    28    18    20   ar
    29    16    18   ar
    30     4    18    1
    31    15    17   ar
    32     3    17    1
    33    15    16   ar
    34     1    15    1
    35     2    16    1
@<TRIPOS>SUBSTRUCTURE
     1 lig         1 TEMP              0 ****  ****    0 ROOT


########## Name:		ligand
########## HA_RMSDs:		4.1352
########## HA_RMSDh:		4.0046
########## HA_RMSDm:		0.6112
########## Cluster Size:	2
##########    Grid Score:          -27.489561
##########      Grid_vdw:          -26.941793
##########       Grid_es:           -0.547767
##########    Int_energy:            4.819466

@<TRIPOS>MOLECULE
ligand
 33 35 1 0 0
SMALL
No Charge or Current Charge


@<TRIPOS>ATOM
      1 H1         21.9388   16.9276   20.1209 H       1  lig         0.0618
      2 H2         20.6478   19.0140   20.1004 H       1  lig         0.0618
      3 H3         20.8043   14.7109   20.0020 H       1  lig         0.0624
      4 H4         18.1757   19.0339   19.9893 H       1  lig         0.0638
      5 H5         17.1081   11.2625   19.7746 H       1  lig         0.0618
      6 H6         14.8450   12.2227   19.8391 H       1  lig         0.0618
      7 H7         19.1096   12.7422   19.8844 H       1  lig         0.0624
      8 H8         14.4380   14.6538   19.7845 H       1  lig         0.0638
      9 H9         13.1954   17.5267   17.3721 H       1  lig         0.0379
     10 H10        13.7380   16.0245   18.0680 H       1  lig         0.0379
     11 H11        14.9494   18.8381   18.3244 H       1  lig         0.0288
     12 H12        15.7160   17.3714   17.7560 H       1  lig         0.0288
     13 H13        14.8130   17.1033   20.5492 H       1  lig         0.0492
     14 H14        15.9614   18.4208   20.3238 H       1  lig         0.0492
     15 C1         20.8548   16.8802   20.0684 C.ar    1  lig        -0.0611
     16 C2         20.1122   18.0698   20.0633 C.ar    1  lig        -0.0598
     17 C3         20.2260   15.6311   20.0029 C.ar    1  lig        -0.0520
     18 C4         18.7142   18.0901   19.9973 C.ar    1  lig        -0.0376
     19 C5         18.8322   15.6386   19.9428 C.ar    1  lig         0.0076
     20 C6         18.0236   16.8740   19.9415 C.ar    1  lig         0.0501
     21 C7         16.9820   12.3432   19.7640 C.ar    1  lig        -0.0611
     22 C8         15.6864   12.8854   19.7337 C.ar    1  lig        -0.0598
     23 C9         18.1132   13.1675   19.8419 C.ar    1  lig        -0.0520
     24 C10        15.4549   14.2713   19.7659 C.ar    1  lig        -0.0376
     25 C11        17.8911   14.5380   19.8686 C.ar    1  lig         0.0076
     26 C12        16.5414   15.1450   19.8376 C.ar    1  lig         0.0501
     27 C13        12.6906   17.3276   19.4128 C.2     1  lig         0.3561
     28 C14        13.6477   17.0922   18.2644 C.3     1  lig         0.0508
     29 C15        15.0153   17.7631   18.4978 C.3     1  lig        -0.0247
     30 C16        15.6013   17.4815   19.8935 C.3     1  lig         0.0244
     31 N1         16.7053   16.5096   19.8716 N.pl3   1  lig        -0.3398
     32 O1         12.2565   18.5524   19.6935 O.co2   1  lig        -0.2464
     33 O2         12.2993   16.4029   20.1101 O.co2   1  lig        -0.2464
@<TRIPOS>BOND
     1    27    33    1
     2    27    32    1
     3    27    28    1
     4    28    29    1
     5     9    28    1
     6    10    28    1
     7    29    30    1
     8    11    29    1
     9    12    29    1
    10    30    31    1
    11    13    30    1
    12    14    30    1
    13    26    31    1
    14    20    31    1
    15    24    26   ar
    16    25    26   ar
    17    22    24   ar
    18     8    24    1
    19    23    25   ar
    20    19    25    1
    21    21    23   ar
    22     7    23    1
    23    21    22   ar
    24     5    21    1
    25     6    22    1
    26    19    20   ar
    27    17    19   ar
    28    18    20   ar
    29    16    18   ar
    30     4    18    1
    31    15    17   ar
    32     3    17    1
    33    15    16   ar
    34     1    15    1
    35     2    16    1
@<TRIPOS>SUBSTRUCTURE
     1 lig         1 TEMP              0 ****  ****    0 ROOT


########## Name:		ligand
########## HA_RMSDs:		5.7439
########## HA_RMSDh:		5.4000
########## HA_RMSDm:		3.1726
########## Cluster Size:	1
##########    Grid Score:          -27.444511
##########      Grid_vdw:          -27.539640
##########       Grid_es:            0.095128
##########    Int_energy:            9.826523

@<TRIPOS>MOLECULE
ligand
 33 35 1 0 0
SMALL
No Charge or Current Charge


@<TRIPOS>ATOM
      1 H1         13.1324   12.4731   20.4721 H       1  lig         0.0618
      2 H2         14.8926   12.2921   22.1719 H       1  lig         0.0618
      3 H3         13.1742   14.2889   18.7645 H       1  lig         0.0624
      4 H4         16.7706   13.8984   22.3015 H       1  lig         0.0638
      5 H5         14.6754   18.4001   16.2249 H       1  lig         0.0618
      6 H6         16.6644   19.4881   17.1779 H       1  lig         0.0618
      7 H7         13.7205   16.3609   17.2914 H       1  lig         0.0624
      8 H8         17.9302   18.5167   19.0575 H       1  lig         0.0638
      9 H9         18.7758   15.2517   18.6767 H       1  lig         0.0379
     10 H10        20.4308   14.8572   19.0515 H       1  lig         0.0379
     11 H11        19.7175   17.1273   19.9791 H       1  lig         0.0288
     12 H12        20.2233   16.0208   21.2367 H       1  lig         0.0288
     13 H13        18.0326   17.3899   21.6157 H       1  lig         0.0492
     14 H14        18.0911   15.6937   22.0901 H       1  lig         0.0492
     15 C1         13.9365   13.2035   20.4831 C.ar    1  lig        -0.0611
     16 C2         14.9411   13.1082   21.4569 C.ar    1  lig        -0.0598
     17 C3         13.9515   14.2204   19.5210 C.ar    1  lig        -0.0520
     18 C4         16.0084   14.0104   21.5353 C.ar    1  lig        -0.0376
     19 C5         15.0075   15.1293   19.5928 C.ar    1  lig         0.0076
     20 C6         16.0759   15.0579   20.6094 C.ar    1  lig         0.0501
     21 C7         15.1903   17.9385   17.0651 C.ar    1  lig        -0.0611
     22 C8         16.3639   18.5290   17.5625 C.ar    1  lig        -0.0598
     23 C9         14.6371   16.8005   17.6684 C.ar    1  lig        -0.0520
     24 C10        17.0495   18.0089   18.6738 C.ar    1  lig        -0.0376
     25 C11        15.3131   16.2788   18.7636 C.ar    1  lig         0.0076
     26 C12        16.5516   16.8731   19.3149 C.ar    1  lig         0.0501
     27 C13        18.9573   13.7381   20.1378 C.2     1  lig         0.3561
     28 C14        19.4515   15.0187   19.5005 C.3     1  lig         0.0508
     29 C15        19.4472   16.2014   20.4885 C.3     1  lig        -0.0247
     30 C16        18.1085   16.3701   21.2303 C.3     1  lig         0.0244
     31 N1         16.9387   16.0967   20.3813 N.pl3   1  lig        -0.3398
     32 O1         18.2373   12.8665   19.4384 O.co2   1  lig        -0.2464
     33 O2         19.2024   13.4775   21.3067 O.co2   1  lig        -0.2464
@<TRIPOS>BOND
     1    27    33    1
     2    27    32    1
     3    27    28    1
     4    28    29    1
     5     9    28    1
     6    10    28    1
     7    29    30    1
     8    11    29    1
     9    12    29    1
    10    30    31    1
    11    13    30    1
    12    14    30    1
    13    26    31    1
    14    20    31    1
    15    24    26   ar
    16    25    26   ar
    17    22    24   ar
    18     8    24    1
    19    23    25   ar
    20    19    25    1
    21    21    23   ar
    22     7    23    1
    23    21    22   ar
    24     5    21    1
    25     6    22    1
    26    19    20   ar
    27    17    19   ar
    28    18    20   ar
    29    16    18   ar
    30     4    18    1
    31    15    17   ar
    32     3    17    1
    33    15    16   ar
    34     1    15    1
    35     2    16    1
@<TRIPOS>SUBSTRUCTURE
     1 lig         1 TEMP              0 ****  ****    0 ROOT


########## Name:		ligand
########## HA_RMSDs:		5.9021
########## HA_RMSDh:		5.8034
########## HA_RMSDm:		2.7298
########## Cluster Size:	2
##########    Grid Score:          -27.442329
##########      Grid_vdw:          -28.918049
##########       Grid_es:            1.475720
##########    Int_energy:            6.186345

@<TRIPOS>MOLECULE
ligand
 33 35 1 0 0
SMALL
No Charge or Current Charge


@<TRIPOS>ATOM
      1 H1         17.3946   20.5586   20.2125 H       1  lig         0.0618
      2 H2         19.1595   19.2314   21.2822 H       1  lig         0.0618
      3 H3         15.2894   19.4914   19.4098 H       1  lig         0.0624
      4 H4         18.9624   16.7847   21.5961 H       1  lig         0.0638
      5 H5         11.8664   15.9157   18.3601 H       1  lig         0.0618
      6 H6         12.6004   13.6378   18.9260 H       1  lig         0.0618
      7 H7         13.3684   17.8618   18.7650 H       1  lig         0.0624
      8 H8         14.7162   13.1856   20.1082 H       1  lig         0.0638
      9 H9         16.7188   13.4193   18.7722 H       1  lig         0.0379
     10 H10        18.2423   12.8959   18.1086 H       1  lig         0.0379
     11 H11        18.9625   14.5026   19.7386 H       1  lig         0.0288
     12 H12        19.0278   13.0232   20.6709 H       1  lig         0.0288
     13 H13        17.9193   14.6068   22.0719 H       1  lig         0.0492
     14 H14        16.6920   13.4692   21.5196 H       1  lig         0.0492
     15 C1         17.2566   19.4872   20.3281 C.ar    1  lig        -0.0611
     16 C2         18.2653   18.7235   20.9328 C.ar    1  lig        -0.0598
     17 C3         16.0716   18.8962   19.8736 C.ar    1  lig        -0.0520
     18 C4         18.1606   17.3399   21.1171 C.ar    1  lig        -0.0376
     19 C5         15.9584   17.5165   20.0466 C.ar    1  lig         0.0076
     20 C6         17.0052   16.6857   20.6741 C.ar    1  lig         0.0501
     21 C7         12.8168   15.7677   18.8689 C.ar    1  lig        -0.0611
     22 C8         13.2001   14.4709   19.2492 C.ar    1  lig        -0.0598
     23 C9         13.6621   16.8663   19.0782 C.ar    1  lig        -0.0520
     24 C10        14.4347   14.2070   19.8669 C.ar    1  lig        -0.0376
     25 C11        14.8811   16.6127   19.6931 C.ar    1  lig         0.0076
     26 C12        15.3183   15.2606   20.1079 C.ar    1  lig         0.0501
     27 C13        17.3016   11.5039   19.4431 C.2     1  lig         0.3561
     28 C14        17.6525   12.9151   19.0243 C.3     1  lig         0.0508
     29 C15        18.3466   13.7029   20.1524 C.3     1  lig        -0.0247
     30 C16        17.3637   14.2689   21.1936 C.3     1  lig         0.0244
     31 N1         16.5611   15.3902   20.6812 N.pl3   1  lig        -0.3398
     32 O1         16.1631   11.2488   20.0802 O.co2   1  lig        -0.2464
     33 O2         18.0551   10.5694   19.2118 O.co2   1  lig        -0.2464
@<TRIPOS>BOND
     1    27    33    1
     2    27    32    1
     3    27    28    1
     4    28    29    1
     5     9    28    1
     6    10    28    1
     7    29    30    1
     8    11    29    1
     9    12    29    1
    10    30    31    1
    11    13    30    1
    12    14    30    1
    13    26    31    1
    14    20    31    1
    15    24    26   ar
    16    25    26   ar
    17    22    24   ar
    18     8    24    1
    19    23    25   ar
    20    19    25    1
    21    21    23   ar
    22     7    23    1
    23    21    22   ar
    24     5    21    1
    25     6    22    1
    26    19    20   ar
    27    17    19   ar
    28    18    20   ar
    29    16    18   ar
    30     4    18    1
    31    15    17   ar
    32     3    17    1
    33    15    16   ar
    34     1    15    1
    35     2    16    1
@<TRIPOS>SUBSTRUCTURE
     1 lig         1 TEMP              0 ****  ****    0 ROOT


########## Name:		ligand
########## HA_RMSDs:		5.9362
########## HA_RMSDh:		5.7535
########## HA_RMSDm:		3.1350
########## Cluster Size:	2
##########    Grid Score:          -27.392426
##########      Grid_vdw:          -27.034412
##########       Grid_es:           -0.358012
##########    Int_energy:            3.711020

@<TRIPOS>MOLECULE
ligand
 33 35 1 0 0
SMALL
No Charge or Current Charge


@<TRIPOS>ATOM
      1 H1         14.4325   21.3768   19.6981 H       1  lig         0.0618
      2 H2         16.7557   21.0366   20.4102 H       1  lig         0.0618
      3 H3         12.9428   19.4411   19.1993 H       1  lig         0.0624
      4 H4         17.7462   18.7810   20.6443 H       1  lig         0.0638
      5 H5         11.3986   14.6650   18.5594 H       1  lig         0.0618
      6 H6         13.1689   12.9921   18.8992 H       1  lig         0.0618
      7 H7         11.8957   17.0943   18.8018 H       1  lig         0.0624
      8 H8         15.4203   13.5942   19.7040 H       1  lig         0.0638
      9 H9         19.7749   14.3908   19.8296 H       1  lig         0.0379
     10 H10        20.6114   15.6036   18.8998 H       1  lig         0.0379
     11 H11        18.1670   15.6602   18.3564 H       1  lig         0.0288
     12 H12        18.6073   17.1290   19.1992 H       1  lig         0.0288
     13 H13        17.7692   16.1975   21.3528 H       1  lig         0.0492
     14 H14        17.2862   14.7225   20.5182 H       1  lig         0.0492
     15 C1         14.8172   20.3648   19.7874 C.ar    1  lig        -0.0611
     16 C2         16.1464   20.1655   20.1875 C.ar    1  lig        -0.0598
     17 C3         13.9739   19.2837   19.5044 C.ar    1  lig        -0.0520
     18 C4         16.7135   18.8933   20.3255 C.ar    1  lig        -0.0376
     19 C5         14.5300   18.0107   19.6328 C.ar    1  lig         0.0076
     20 C6         15.9267   17.7698   20.0464 C.ar    1  lig         0.0501
     21 C7         12.3812   14.9837   18.9014 C.ar    1  lig        -0.0611
     22 C8         13.3683   14.0176   19.1577 C.ar    1  lig        -0.0598
     23 C9         12.6564   16.3532   19.0197 C.ar    1  lig        -0.0520
     24 C10        14.6702   14.3664   19.5562 C.ar    1  lig        -0.0376
     25 C11        13.9396   16.7038   19.4184 C.ar    1  lig         0.0076
     26 C12        15.0045   15.7144   19.6975 C.ar    1  lig         0.0501
     27 C13        20.4063   16.0372   20.9911 C.2     1  lig         0.3561
     28 C14        19.8768   15.4680   19.6927 C.3     1  lig         0.0508
     29 C15        18.4985   16.0482   19.3205 C.3     1  lig        -0.0247
     30 C16        17.4237   15.8009   20.3949 C.3     1  lig         0.0244
     31 N1         16.1276   16.4153   20.0682 N.pl3   1  lig        -0.3398
     32 O1         20.1069   15.4665   22.1538 O.co2   1  lig        -0.2464
     33 O2         21.1143   17.0338   21.0030 O.co2   1  lig        -0.2464
@<TRIPOS>BOND
     1    27    33    1
     2    27    32    1
     3    27    28    1
     4    28    29    1
     5     9    28    1
     6    10    28    1
     7    29    30    1
     8    11    29    1
     9    12    29    1
    10    30    31    1
    11    13    30    1
    12    14    30    1
    13    26    31    1
    14    20    31    1
    15    24    26   ar
    16    25    26   ar
    17    22    24   ar
    18     8    24    1
    19    23    25   ar
    20    19    25    1
    21    21    23   ar
    22     7    23    1
    23    21    22   ar
    24     5    21    1
    25     6    22    1
    26    19    20   ar
    27    17    19   ar
    28    18    20   ar
    29    16    18   ar
    30     4    18    1
    31    15    17   ar
    32     3    17    1
    33    15    16   ar
    34     1    15    1
    35     2    16    1
@<TRIPOS>SUBSTRUCTURE
     1 lig         1 TEMP              0 ****  ****    0 ROOT


########## Name:		ligand
########## HA_RMSDs:		4.8615
########## HA_RMSDh:		4.3083
########## HA_RMSDm:		0.5982
########## Cluster Size:	1
##########    Grid Score:          -26.772495
##########      Grid_vdw:          -27.073915
##########       Grid_es:            0.301420
##########    Int_energy:            5.626833

@<TRIPOS>MOLECULE
ligand
 33 35 1 0 0
SMALL
No Charge or Current Charge


@<TRIPOS>ATOM
      1 H1         17.6978   17.0346   14.0419 H       1  lig         0.0618
      2 H2         19.8215   17.4334   15.2045 H       1  lig         0.0618
      3 H3         15.5296   17.0788   15.2713 H       1  lig         0.0624
      4 H4         19.9308   17.8697   17.6379 H       1  lig         0.0638
      5 H5         12.2310   17.4432   19.0913 H       1  lig         0.0618
      6 H6         13.2847   17.7729   21.2887 H       1  lig         0.0618
      7 H7         13.6306   17.2202   17.0422 H       1  lig         0.0624
      8 H8         15.7109   18.1238   21.5526 H       1  lig         0.0638
      9 H9         19.6655   14.9926   21.1955 H       1  lig         0.0379
     10 H10        18.9103   15.3231   19.6607 H       1  lig         0.0379
     11 H11        19.1973   17.2105   22.0885 H       1  lig         0.0288
     12 H12        17.7191   16.5314   21.4436 H       1  lig         0.0288
     13 H13        19.4280   18.4186   19.7817 H       1  lig         0.0492
     14 H14        18.1772   18.9932   20.8819 H       1  lig         0.0492
     15 C1         17.6897   17.2241   15.1116 C.ar    1  lig        -0.0611
     16 C2         18.9015   17.4458   15.7817 C.ar    1  lig        -0.0598
     17 C3         16.4675   17.2461   15.7941 C.ar    1  lig        -0.0520
     18 C4         18.9720   17.6965   17.1569 C.ar    1  lig        -0.0376
     19 C5         16.5258   17.4892   17.1667 C.ar    1  lig         0.0076
     20 C6         17.7861   17.7205   17.9001 C.ar    1  lig         0.0501
     21 C7         13.3088   17.5784   19.1560 C.ar    1  lig        -0.0611
     22 C8         13.8973   17.8328   20.4059 C.ar    1  lig        -0.0598
     23 C9         14.0896   17.4356   18.0006 C.ar    1  lig        -0.0520
     24 C10        15.2871   17.9703   20.5638 C.ar    1  lig        -0.0376
     25 C11        15.4631   17.5758   18.1493 C.ar    1  lig         0.0076
     26 C12        16.1182   17.8444   19.4492 C.ar    1  lig         0.0501
     27 C13        20.8265   16.2434   19.9521 C.2     1  lig         0.3561
     28 C14        19.4800   15.7830   20.4672 C.3     1  lig         0.0508
     29 C15        18.7020   16.9177   21.1617 C.3     1  lig        -0.0247
     30 C16        18.4839   18.1467   20.2603 C.3     1  lig         0.0244
     31 N1         17.4708   17.9259   19.2169 N.pl3   1  lig        -0.3398
     32 O1         21.3993   15.6383   18.9163 O.co2   1  lig        -0.2464
     33 O2         21.4197   17.1749   20.4764 O.co2   1  lig        -0.2464
@<TRIPOS>BOND
     1    27    33    1
     2    27    32    1
     3    27    28    1
     4    28    29    1
     5     9    28    1
     6    10    28    1
     7    29    30    1
     8    11    29    1
     9    12    29    1
    10    30    31    1
    11    13    30    1
    12    14    30    1
    13    26    31    1
    14    20    31    1
    15    24    26   ar
    16    25    26   ar
    17    22    24   ar
    18     8    24    1
    19    23    25   ar
    20    19    25    1
    21    21    23   ar
    22     7    23    1
    23    21    22   ar
    24     5    21    1
    25     6    22    1
    26    19    20   ar
    27    17    19   ar
    28    18    20   ar
    29    16    18   ar
    30     4    18    1
    31    15    17   ar
    32     3    17    1
    33    15    16   ar
    34     1    15    1
    35     2    16    1
@<TRIPOS>SUBSTRUCTURE
     1 lig         1 TEMP              0 ****  ****    0 ROOT


########## Name:		ligand
########## HA_RMSDs:		5.7440
########## HA_RMSDh:		4.5185
########## HA_RMSDm:		2.6432
########## Cluster Size:	1
##########    Grid Score:          -26.674486
##########      Grid_vdw:          -27.617811
##########       Grid_es:            0.943326
##########    Int_energy:           12.618239

@<TRIPOS>MOLECULE
ligand
 33 35 1 0 0
SMALL
No Charge or Current Charge


@<TRIPOS>ATOM
      1 H1         15.0179   20.6102   19.4903 H       1  lig         0.0618
      2 H2         13.3587   18.8435   19.1071 H       1  lig         0.0618
      3 H3         17.2855   20.0756   20.3773 H       1  lig         0.0624
      4 H4         13.8286   16.4643   19.5992 H       1  lig         0.0638
      5 H5         21.1781   17.3965   22.1870 H       1  lig         0.0618
      6 H6         20.6886   15.0048   22.4834 H       1  lig         0.0618
      7 H7         19.4283   18.9441   21.3208 H       1  lig         0.0624
      8 H8         18.5686   13.9871   21.7424 H       1  lig         0.0638
      9 H9         18.1527   14.2856   18.9101 H       1  lig         0.0379
     10 H10        17.5576   12.9029   18.0329 H       1  lig         0.0379
     11 H11        17.2992   12.8729   20.6514 H       1  lig         0.0288
     12 H12        15.8795   12.4637   19.7139 H       1  lig         0.0288
     13 H13        15.5124   14.0941   21.6670 H       1  lig         0.0492
     14 H14        14.7919   14.5069   20.1127 H       1  lig         0.0492
     15 C1         15.2763   19.5805   19.7209 C.ar    1  lig        -0.0611
     16 C2         14.3291   18.5682   19.5099 C.ar    1  lig        -0.0598
     17 C3         16.5518   19.2896   20.2195 C.ar    1  lig        -0.0520
     18 C4         14.5877   17.2198   19.7825 C.ar    1  lig        -0.0376
     19 C5         16.8191   17.9494   20.5005 C.ar    1  lig         0.0076
     20 C6         15.8407   16.8631   20.2942 C.ar    1  lig         0.0501
     21 C7         20.2207   16.9986   21.8568 C.ar    1  lig        -0.0611
     22 C8         19.9723   15.6204   21.9675 C.ar    1  lig        -0.0598
     23 C9         19.2367   17.8789   21.3856 C.ar    1  lig        -0.0520
     24 C10        18.7401   15.0510   21.6028 C.ar    1  lig        -0.0376
     25 C11        18.0190   17.3215   21.0186 C.ar    1  lig         0.0076
     26 C12        17.7216   15.8750   21.1208 C.ar    1  lig         0.0501
     27 C13        16.3687   14.6798   17.8515 C.2     1  lig         0.3561
     28 C14        17.2431   13.7409   18.6540 C.3     1  lig         0.0508
     29 C15        16.5626   13.2813   19.9581 C.3     1  lig        -0.0247
     30 C16        15.7430   14.3915   20.6410 C.3     1  lig         0.0244
     31 N1         16.4367   15.6884   20.6688 N.pl3   1  lig        -0.3398
     32 O1         16.8884   15.7499   17.2584 O.co2   1  lig        -0.2464
     33 O2         15.1681   14.4811   17.7341 O.co2   1  lig        -0.2464
@<TRIPOS>BOND
     1    27    33    1
     2    27    32    1
     3    27    28    1
     4    28    29    1
     5     9    28    1
     6    10    28    1
     7    29    30    1
     8    11    29    1
     9    12    29    1
    10    30    31    1
    11    13    30    1
    12    14    30    1
    13    26    31    1
    14    20    31    1
    15    24    26   ar
    16    25    26   ar
    17    22    24   ar
    18     8    24    1
    19    23    25   ar
    20    19    25    1
    21    21    23   ar
    22     7    23    1
    23    21    22   ar
    24     5    21    1
    25     6    22    1
    26    19    20   ar
    27    17    19   ar
    28    18    20   ar
    29    16    18   ar
    30     4    18    1
    31    15    17   ar
    32     3    17    1
    33    15    16   ar
    34     1    15    1
    35     2    16    1
@<TRIPOS>SUBSTRUCTURE
     1 lig         1 TEMP              0 ****  ****    0 ROOT


########## Name:		ligand
########## HA_RMSDs:		5.1061
########## HA_RMSDh:		4.9755
########## HA_RMSDm:		1.6021
########## Cluster Size:	1
##########    Grid Score:          -26.421816
##########      Grid_vdw:          -25.830177
##########       Grid_es:           -0.591639
##########    Int_energy:            8.342522

@<TRIPOS>MOLECULE
ligand
 33 35 1 0 0
SMALL
No Charge or Current Charge


@<TRIPOS>ATOM
      1 H1         18.9864   19.6864   21.5171 H       1  lig         0.0618
      2 H2         20.3965   17.7627   20.9414 H       1  lig         0.0618
      3 H3         16.5483   19.6964   20.9970 H       1  lig         0.0624
      4 H4         19.4937   15.7603   19.8017 H       1  lig         0.0638
      5 H5         12.0466   18.1740   19.2588 H       1  lig         0.0618
      6 H6         12.1090   16.0083   18.0951 H       1  lig         0.0618
      7 H7         14.1315   19.1595   20.2018 H       1  lig         0.0624
      8 H8         14.1419   14.6165   17.9998 H       1  lig         0.0638
      9 H9         15.5068   14.0972   20.8690 H       1  lig         0.0379
     10 H10        15.7743   12.3989   21.1510 H       1  lig         0.0379
     11 H11        15.5233   12.9118   18.6805 H       1  lig         0.0288
     12 H12        17.1123   12.2731   19.0397 H       1  lig         0.0288
     13 H13        16.9667   14.3534   17.4790 H       1  lig         0.0492
     14 H14        18.2195   14.2908   18.7168 H       1  lig         0.0492
     15 C1         18.5391   18.8308   21.0192 C.ar    1  lig        -0.0611
     16 C2         19.3423   17.7318   20.6820 C.ar    1  lig        -0.0598
     17 C3         17.1693   18.8454   20.7301 C.ar    1  lig        -0.0520
     18 C4         18.8392   16.5941   20.0404 C.ar    1  lig        -0.0376
     19 C5         16.6576   17.7191   20.0851 C.ar    1  lig         0.0076
     20 C6         17.4791   16.5501   19.7129 C.ar    1  lig         0.0501
     21 C7         12.9733   17.6044   19.2319 C.ar    1  lig        -0.0611
     22 C8         12.9865   16.3382   18.6238 C.ar    1  lig        -0.0598
     23 C9         14.1446   18.1736   19.7509 C.ar    1  lig        -0.0520
     24 C10        14.1605   15.5731   18.5149 C.ar    1  lig        -0.0376
     25 C11        15.3068   17.4201   19.6511 C.ar    1  lig         0.0076
     26 C12        15.3586   16.0831   19.0181 C.ar    1  lig         0.0501
     27 C13        17.4870   13.6553   21.4539 C.2     1  lig         0.3561
     28 C14        16.2213   13.2888   20.7095 C.3     1  lig         0.0508
     29 C15        16.4591   13.1356   19.1946 C.3     1  lig        -0.0247
     30 C16        17.1392   14.3615   18.5581 C.3     1  lig         0.0244
     31 N1         16.6569   15.6392   19.1048 N.pl3   1  lig        -0.3398
     32 O1         17.4442   14.4672   22.5057 O.co2   1  lig        -0.2464
     33 O2         18.5748   13.2203   21.1048 O.co2   1  lig        -0.2464
@<TRIPOS>BOND
     1    27    33    1
     2    27    32    1
     3    27    28    1
     4    28    29    1
     5     9    28    1
     6    10    28    1
     7    29    30    1
     8    11    29    1
     9    12    29    1
    10    30    31    1
    11    13    30    1
    12    14    30    1
    13    26    31    1
    14    20    31    1
    15    24    26   ar
    16    25    26   ar
    17    22    24   ar
    18     8    24    1
    19    23    25   ar
    20    19    25    1
    21    21    23   ar
    22     7    23    1
    23    21    22   ar
    24     5    21    1
    25     6    22    1
    26    19    20   ar
    27    17    19   ar
    28    18    20   ar
    29    16    18   ar
    30     4    18    1
    31    15    17   ar
    32     3    17    1
    33    15    16   ar
    34     1    15    1
    35     2    16    1
@<TRIPOS>SUBSTRUCTURE
     1 lig         1 TEMP              0 ****  ****    0 ROOT


########## Name:		ligand
########## HA_RMSDs:		4.6859
########## HA_RMSDh:		4.6410
########## HA_RMSDm:		1.8700
########## Cluster Size:	1
##########    Grid Score:          -26.203913
##########      Grid_vdw:          -27.283100
##########       Grid_es:            1.079187
##########    Int_energy:            6.210090

@<TRIPOS>MOLECULE
ligand
 33 35 1 0 0
SMALL
No Charge or Current Charge


@<TRIPOS>ATOM
      1 H1         21.0864   17.4913   21.8549 H       1  lig         0.0618
      2 H2         20.6986   15.0714   21.9757 H       1  lig         0.0618
      3 H3         19.2561   19.0575   21.2133 H       1  lig         0.0624
      4 H4         18.5027   14.0601   21.4475 H       1  lig         0.0638
      5 H5         14.7018   20.7143   19.7575 H       1  lig         0.0618
      6 H6         13.0836   18.9166   19.3132 H       1  lig         0.0618
      7 H7         17.0242   20.1709   20.4777 H       1  lig         0.0624
      8 H8         13.5840   16.5452   19.7658 H       1  lig         0.0638
      9 H9         17.7380   14.0566   19.1569 H       1  lig         0.0379
     10 H10        17.1867   12.8799   17.9963 H       1  lig         0.0379
     11 H11        15.1144   12.9289   19.0803 H       1  lig         0.0288
     12 H12        14.9458   14.5828   18.5343 H       1  lig         0.0288
     13 H13        16.2298   13.7377   21.1661 H       1  lig         0.0492
     14 H14        14.6425   14.4754   20.9611 H       1  lig         0.0492
     15 C1         20.1021   17.0991   21.6152 C.ar    1  lig        -0.0611
     16 C2         19.8774   15.7162   21.6762 C.ar    1  lig        -0.0598
     17 C3         19.0804   17.9858   21.2549 C.ar    1  lig        -0.0520
     18 C4         18.6379   15.1362   21.3823 C.ar    1  lig        -0.0376
     19 C5         17.8418   17.4187   20.9539 C.ar    1  lig         0.0076
     20 C6         17.5769   15.9671   21.0039 C.ar    1  lig         0.0501
     21 C7         14.9767   19.6811   19.9599 C.ar    1  lig        -0.0611
     22 C8         14.0261   18.6648   19.7674 C.ar    1  lig        -0.0598
     23 C9         16.2901   19.3835   20.3495 C.ar    1  lig        -0.0520
     24 C10        14.3321   17.3075   19.9659 C.ar    1  lig        -0.0376
     25 C11        16.5969   18.0444   20.5524 C.ar    1  lig         0.0076
     26 C12        15.6220   16.9473   20.3601 C.ar    1  lig         0.0501
     27 C13        17.1025   14.9202   17.3378 C.2     1  lig         0.3561
     28 C14        16.9658   13.8625   18.4115 C.3     1  lig         0.0508
     29 C15        15.5906   13.9100   19.1055 C.3     1  lig        -0.0247
     30 C16        15.6562   14.4357   20.5512 C.3     1  lig         0.0244
     31 N1         16.2676   15.7697   20.6542 N.pl3   1  lig        -0.3398
     32 O1         17.4911   16.1535   17.6465 O.co2   1  lig        -0.2464
     33 O2         16.8551   14.6692   16.1672 O.co2   1  lig        -0.2464
@<TRIPOS>BOND
     1    27    33    1
     2    27    32    1
     3    27    28    1
     4    28    29    1
     5     9    28    1
     6    10    28    1
     7    29    30    1
     8    11    29    1
     9    12    29    1
    10    30    31    1
    11    13    30    1
    12    14    30    1
    13    26    31    1
    14    20    31    1
    15    24    26   ar
    16    25    26   ar
    17    22    24   ar
    18     8    24    1
    19    23    25   ar
    20    19    25    1
    21    21    23   ar
    22     7    23    1
    23    21    22   ar
    24     5    21    1
    25     6    22    1
    26    19    20   ar
    27    17    19   ar
    28    18    20   ar
    29    16    18   ar
    30     4    18    1
    31    15    17   ar
    32     3    17    1
    33    15    16   ar
    34     1    15    1
    35     2    16    1
@<TRIPOS>SUBSTRUCTURE
     1 lig         1 TEMP              0 ****  ****    0 ROOT


########## Name:		ligand
########## HA_RMSDs:		5.8068
########## HA_RMSDh:		4.8554
########## HA_RMSDm:		0.8785
########## Cluster Size:	3
##########    Grid Score:          -26.186079
##########      Grid_vdw:          -26.477243
##########       Grid_es:            0.291165
##########    Int_energy:            4.144355

@<TRIPOS>MOLECULE
ligand
 33 35 1 0 0
SMALL
No Charge or Current Charge


@<TRIPOS>ATOM
      1 H1         15.2676   17.3931   15.4687 H       1  lig         0.0618
      2 H2         17.6193   18.0038   15.1269 H       1  lig         0.0618
      3 H3         14.5476   16.1278   17.4924 H       1  lig         0.0624
      4 H4         19.3908   17.3820   16.7390 H       1  lig         0.0638
      5 H5         14.8064   13.6294   21.8852 H       1  lig         0.0618
      6 H6         17.0950   13.3600   22.7441 H       1  lig         0.0618
      7 H7         14.3991   14.8128   19.7309 H       1  lig         0.0624
      8 H8         19.0445   14.4187   21.6681 H       1  lig         0.0638
      9 H9         22.3295   18.5768   20.1828 H       1  lig         0.0379
     10 H10        22.7705   16.9109   19.9263 H       1  lig         0.0379
     11 H11        19.9326   18.1169   19.6509 H       1  lig         0.0288
     12 H12        20.5161   17.1975   21.0206 H       1  lig         0.0288
     13 H13        20.5205   15.1466   19.8906 H       1  lig         0.0492
     14 H14        20.6230   15.9000   18.3009 H       1  lig         0.0492
     15 C1         16.0055   17.0974   16.2091 C.ar    1  lig        -0.0611
     16 C2         17.3519   17.4383   16.0148 C.ar    1  lig        -0.0598
     17 C3         15.5924   16.3863   17.3421 C.ar    1  lig        -0.0520
     18 C4         18.3595   17.0934   16.9231 C.ar    1  lig        -0.0376
     19 C5         16.5890   16.0318   18.2517 C.ar    1  lig         0.0076
     20 C6         18.0145   16.3715   18.0715 C.ar    1  lig         0.0501
     21 C7         15.6356   14.1046   21.3648 C.ar    1  lig        -0.0611
     22 C8         16.9318   14.0030   21.8968 C.ar    1  lig        -0.0598
     23 C9         15.3992   14.7546   20.1455 C.ar    1  lig        -0.0520
     24 C10        18.0510   14.5538   21.2492 C.ar    1  lig        -0.0376
     25 C11        16.5004   15.3057   19.5036 C.ar    1  lig         0.0076
     26 C12        17.8797   15.2190   20.0338 C.ar    1  lig         0.0501
     27 C13        22.2670   18.0055   18.1510 C.2     1  lig         0.3561
     28 C14        22.0672   17.6827   19.6159 C.3     1  lig         0.0508
     29 C15        20.6070   17.3087   19.9370 C.3     1  lig        -0.0247
     30 C16        20.1610   15.9851   19.2890 C.3     1  lig         0.0244
     31 N1         18.7010   15.8740   19.1470 N.pl3   1  lig        -0.3398
     32 O1         23.4070   17.7010   17.5388 O.co2   1  lig        -0.2464
     33 O2         21.3914   18.5562   17.4993 O.co2   1  lig        -0.2464
@<TRIPOS>BOND
     1    27    33    1
     2    27    32    1
     3    27    28    1
     4    28    29    1
     5     9    28    1
     6    10    28    1
     7    29    30    1
     8    11    29    1
     9    12    29    1
    10    30    31    1
    11    13    30    1
    12    14    30    1
    13    26    31    1
    14    20    31    1
    15    24    26   ar
    16    25    26   ar
    17    22    24   ar
    18     8    24    1
    19    23    25   ar
    20    19    25    1
    21    21    23   ar
    22     7    23    1
    23    21    22   ar
    24     5    21    1
    25     6    22    1
    26    19    20   ar
    27    17    19   ar
    28    18    20   ar
    29    16    18   ar
    30     4    18    1
    31    15    17   ar
    32     3    17    1
    33    15    16   ar
    34     1    15    1
    35     2    16    1
@<TRIPOS>SUBSTRUCTURE
     1 lig         1 TEMP              0 ****  ****    0 ROOT


########## Name:		ligand
########## HA_RMSDs:		6.7813
########## HA_RMSDh:		6.6081
########## HA_RMSDm:		4.5976
########## Cluster Size:	1
##########    Grid Score:          -26.167496
##########      Grid_vdw:          -24.992359
##########       Grid_es:           -1.175136
##########    Int_energy:            7.909163

@<TRIPOS>MOLECULE
ligand
 33 35 1 0 0
SMALL
No Charge or Current Charge


@<TRIPOS>ATOM
      1 H1         13.1808   10.6744   18.1343 H       1  lig         0.0618
      2 H2         15.1663   10.1916   19.4927 H       1  lig         0.0618
      3 H3         12.3104   12.9996   17.9084 H       1  lig         0.0624
      4 H4         16.3851   11.9603   20.7215 H       1  lig         0.0638
      5 H5         11.8719   18.0002   18.5462 H       1  lig         0.0618
      6 H6         13.5114   18.9517   20.1128 H       1  lig         0.0618
      7 H7         11.8612   15.5562   18.0620 H       1  lig         0.0624
      8 H8         15.3371   17.6139   21.0906 H       1  lig         0.0638
      9 H9         19.7540   14.4372   20.0661 H       1  lig         0.0379
     10 H10        18.8969   13.3348   21.1081 H       1  lig         0.0379
     11 H11        17.6939   15.9438   19.9593 H       1  lig         0.0288
     12 H12        18.5033   15.8512   21.5079 H       1  lig         0.0288
     13 H13        16.3530   15.5946   22.2638 H       1  lig         0.0492
     14 H14        16.7618   13.9007   22.0007 H       1  lig         0.0492
     15 C1         13.6805   11.4886   18.6516 C.ar    1  lig        -0.0611
     16 C2         14.8116   11.2166   19.4347 C.ar    1  lig        -0.0598
     17 C3         13.1843   12.7910   18.5199 C.ar    1  lig        -0.0520
     18 C4         15.5087   12.2113   20.1302 C.ar    1  lig        -0.0376
     19 C5         13.8675   13.7903   19.2135 C.ar    1  lig         0.0076
     20 C6         15.0571   13.5337   20.0496 C.ar    1  lig         0.0501
     21 C7         12.6501   17.3637   18.9625 C.ar    1  lig        -0.0611
     22 C8         13.6236   17.9268   19.8044 C.ar    1  lig        -0.0598
     23 C9         12.6267   15.9874   18.6973 C.ar    1  lig        -0.0520
     24 C10        14.6266   17.1513   20.4109 C.ar    1  lig        -0.0376
     25 C11        13.6186   15.2167   19.2894 C.ar    1  lig         0.0076
     26 C12        14.6602   15.7747   20.1809 C.ar    1  lig         0.0501
     27 C13        18.1839   13.4206   19.0862 C.2     1  lig         0.3561
     28 C14        18.7570   14.0773   20.3234 C.3     1  lig         0.0508
     29 C15        17.9091   15.2751   20.7939 C.3     1  lig        -0.0247
     30 C16        16.6036   14.8585   21.4959 C.3     1  lig         0.0244
     31 N1         15.4656   14.7317   20.5725 N.pl3   1  lig        -0.3398
     32 O1         18.2962   12.1090   18.9009 O.co2   1  lig        -0.2464
     33 O2         17.6113   14.0774   18.2288 O.co2   1  lig        -0.2464
@<TRIPOS>BOND
     1    27    33    1
     2    27    32    1
     3    27    28    1
     4    28    29    1
     5     9    28    1
     6    10    28    1
     7    29    30    1
     8    11    29    1
     9    12    29    1
    10    30    31    1
    11    13    30    1
    12    14    30    1
    13    26    31    1
    14    20    31    1
    15    24    26   ar
    16    25    26   ar
    17    22    24   ar
    18     8    24    1
    19    23    25   ar
    20    19    25    1
    21    21    23   ar
    22     7    23    1
    23    21    22   ar
    24     5    21    1
    25     6    22    1
    26    19    20   ar
    27    17    19   ar
    28    18    20   ar
    29    16    18   ar
    30     4    18    1
    31    15    17   ar
    32     3    17    1
    33    15    16   ar
    34     1    15    1
    35     2    16    1
@<TRIPOS>SUBSTRUCTURE
     1 lig         1 TEMP              0 ****  ****    0 ROOT


########## Name:		ligand
########## HA_RMSDs:		4.2525
########## HA_RMSDh:		2.1258
########## HA_RMSDm:		0.5291
########## Cluster Size:	1
##########    Grid Score:          -25.568424
##########      Grid_vdw:          -25.882343
##########       Grid_es:            0.313918
##########    Int_energy:           10.047834

@<TRIPOS>MOLECULE
ligand
 33 35 1 0 0
SMALL
No Charge or Current Charge


@<TRIPOS>ATOM
      1 H1         17.4839   18.1658   12.9955 H       1  lig         0.0618
      2 H2         15.5948   17.1835   14.2149 H       1  lig         0.0618
      3 H3         19.7420   18.3328   14.0386 H       1  lig         0.0624
      4 H4         15.8162   16.3386   16.5302 H       1  lig         0.0638
      5 H5         23.4311   17.9772   17.4838 H       1  lig         0.0618
      6 H6         22.6847   17.0945   19.6544 H       1  lig         0.0618
      7 H7         21.8094   18.2650   15.6144 H       1  lig         0.0624
      8 H8         20.3979   16.2495   20.0227 H       1  lig         0.0638
      9 H9         17.6973   18.6817   19.2621 H       1  lig         0.0379
     10 H10        16.3769   18.9156   20.3744 H       1  lig         0.0379
     11 H11        15.7663   17.1332   18.7337 H       1  lig         0.0288
     12 H12        15.9731   16.4048   20.3113 H       1  lig         0.0288
     13 H13        17.0440   15.0325   18.5484 H       1  lig         0.0492
     14 H14        18.1905   15.5755   19.7715 H       1  lig         0.0492
     15 C1         17.6359   17.8073   14.0097 C.ar    1  lig        -0.0611
     16 C2         16.5576   17.2514   14.7131 C.ar    1  lig        -0.0598
     17 C3         18.9070   17.9059   14.5879 C.ar    1  lig        -0.0520
     18 C4         16.6749   16.7682   16.0215 C.ar    1  lig        -0.0376
     19 C5         19.0347   17.4329   15.8942 C.ar    1  lig         0.0076
     20 C6         17.9171   16.8480   16.6615 C.ar    1  lig         0.0501
     21 C7         22.4062   17.6305   17.5997 C.ar    1  lig        -0.0611
     22 C8         22.0039   17.0658   18.8214 C.ar    1  lig        -0.0598
     23 C9         21.4970   17.8109   16.5480 C.ar    1  lig        -0.0520
     24 C10        20.6835   16.6420   19.0505 C.ar    1  lig        -0.0376
     25 C11        20.1921   17.3891   16.7665 C.ar    1  lig         0.0076
     26 C12        19.7323   16.7897   18.0394 C.ar    1  lig         0.0501
     27 C13        18.0949   17.9245   21.1927 C.2     1  lig         0.3561
     28 C14        17.1312   18.1962   20.0580 C.3     1  lig         0.0508
     29 C15        16.5090   16.9020   19.4986 C.3     1  lig        -0.0247
     30 C16        17.5529   15.9128   18.9488 C.3     1  lig         0.0244
     31 N1         18.3982   16.4917   17.8932 N.pl3   1  lig        -0.3398
     32 O1         18.7511   18.9213   21.7785 O.co2   1  lig        -0.2464
     33 O2         18.2967   16.7871   21.5929 O.co2   1  lig        -0.2464
@<TRIPOS>BOND
     1    27    33    1
     2    27    32    1
     3    27    28    1
     4    28    29    1
     5     9    28    1
     6    10    28    1
     7    29    30    1
     8    11    29    1
     9    12    29    1
    10    30    31    1
    11    13    30    1
    12    14    30    1
    13    26    31    1
    14    20    31    1
    15    24    26   ar
    16    25    26   ar
    17    22    24   ar
    18     8    24    1
    19    23    25   ar
    20    19    25    1
    21    21    23   ar
    22     7    23    1
    23    21    22   ar
    24     5    21    1
    25     6    22    1
    26    19    20   ar
    27    17    19   ar
    28    18    20   ar
    29    16    18   ar
    30     4    18    1
    31    15    17   ar
    32     3    17    1
    33    15    16   ar
    34     1    15    1
    35     2    16    1
@<TRIPOS>SUBSTRUCTURE
     1 lig         1 TEMP              0 ****  ****    0 ROOT


########## Name:		ligand
########## HA_RMSDs:		13.1818
########## HA_RMSDh:		12.9025
########## HA_RMSDm:		9.3133
########## Cluster Size:	2
##########    Grid Score:          -25.128113
##########      Grid_vdw:          -25.256941
##########       Grid_es:            0.128828
##########    Int_energy:            2.421630

@<TRIPOS>MOLECULE
ligand
 33 35 1 0 0
SMALL
No Charge or Current Charge


@<TRIPOS>ATOM
      1 H1         13.4615   26.8627   11.3730 H       1  lig         0.0618
      2 H2         15.5409   25.5677   11.2323 H       1  lig         0.0618
      3 H3         13.4536   29.1918   12.2618 H       1  lig         0.0624
      4 H4         17.7158   26.4803   11.9809 H       1  lig         0.0638
      5 H5         15.1246   33.5239   14.2734 H       1  lig         0.0618
      6 H6         17.5148   33.4966   14.8515 H       1  lig         0.0618
      7 H7         14.0448   31.5114   13.2778 H       1  lig         0.0624
      8 H8         18.9918   31.6066   14.2809 H       1  lig         0.0638
      9 H9         21.6363   28.9581   14.4786 H       1  lig         0.0379
     10 H10        21.3697   27.9995   15.9087 H       1  lig         0.0379
     11 H11        19.1858   28.9440   15.3718 H       1  lig         0.0288
     12 H12        19.1135   27.3004   14.7756 H       1  lig         0.0288
     13 H13        19.4462   27.9513   12.4901 H       1  lig         0.0492
     14 H14        19.9165   29.5871   12.9467 H       1  lig         0.0492
     15 C1         14.3904   27.3119   11.7132 C.ar    1  lig        -0.0611
     16 C2         15.5802   26.5732   11.6410 C.ar    1  lig        -0.0598
     17 C3         14.3765   28.6200   12.2117 C.ar    1  lig        -0.0520
     18 C4         16.8149   27.0829   12.0592 C.ar    1  lig        -0.0376
     19 C5         15.6006   29.1367   12.6372 C.ar    1  lig         0.0076
     20 C6         16.8679   28.3815   12.5788 C.ar    1  lig         0.0501
     21 C7         15.7310   32.6587   14.0132 C.ar    1  lig        -0.0611
     22 C8         17.1090   32.6760   14.2858 C.ar    1  lig        -0.0598
     23 C9         15.1122   31.5251   13.4679 C.ar    1  lig        -0.0520
     24 C10        17.9382   31.5734   14.0171 C.ar    1  lig        -0.0376
     25 C11        15.9273   30.4344   13.1953 C.ar    1  lig         0.0076
     26 C12        17.3820   30.4165   13.4683 C.ar    1  lig         0.0501
     27 C13        21.6611   26.8807   14.1012 C.2     1  lig         0.3561
     28 C14        21.1153   28.0758   14.8523 C.3     1  lig         0.0508
     29 C15        19.6029   28.2662   14.6257 C.3     1  lig        -0.0247
     30 C16        19.2565   28.7541   13.2070 C.3     1  lig         0.0244
     31 N1         17.8581   29.1896   13.0707 N.pl3   1  lig        -0.3398
     32 O1         22.0598   26.9977   12.8385 O.co2   1  lig        -0.2464
     33 O2         21.7434   25.7830   14.6329 O.co2   1  lig        -0.2464
@<TRIPOS>BOND
     1    27    33    1
     2    27    32    1
     3    27    28    1
     4    28    29    1
     5     9    28    1
     6    10    28    1
     7    29    30    1
     8    11    29    1
     9    12    29    1
    10    30    31    1
    11    13    30    1
    12    14    30    1
    13    26    31    1
    14    20    31    1
    15    24    26   ar
    16    25    26   ar
    17    22    24   ar
    18     8    24    1
    19    23    25   ar
    20    19    25    1
    21    21    23   ar
    22     7    23    1
    23    21    22   ar
    24     5    21    1
    25     6    22    1
    26    19    20   ar
    27    17    19   ar
    28    18    20   ar
    29    16    18   ar
    30     4    18    1
    31    15    17   ar
    32     3    17    1
    33    15    16   ar
    34     1    15    1
    35     2    16    1
@<TRIPOS>SUBSTRUCTURE
     1 lig         1 TEMP              0 ****  ****    0 ROOT


########## Name:		ligand
########## HA_RMSDs:		5.7214
########## HA_RMSDh:		4.3087
########## HA_RMSDm:		1.8456
########## Cluster Size:	1
##########    Grid Score:          -25.062567
##########      Grid_vdw:          -26.042002
##########       Grid_es:            0.979436
##########    Int_energy:            3.727342

@<TRIPOS>MOLECULE
ligand
 33 35 1 0 0
SMALL
No Charge or Current Charge


@<TRIPOS>ATOM
      1 H1         13.4623   17.4216   20.8635 H       1  lig         0.0618
      2 H2         13.3730   18.3458   18.5923 H       1  lig         0.0618
      3 H3         15.5810   16.4926   21.7925 H       1  lig         0.0624
      4 H4         15.3505   18.3824   17.1050 H       1  lig         0.0638
      5 H5         20.4169   15.0295   22.0719 H       1  lig         0.0618
      6 H6         21.6738   15.3407   19.9811 H       1  lig         0.0618
      7 H7         18.0096   15.6584   22.2018 H       1  lig         0.0624
      8 H8         20.7110   16.4768   18.0161 H       1  lig         0.0638
      9 H9         16.8750   15.8043   14.0732 H       1  lig         0.0379
     10 H10        16.0346   16.9234   15.1108 H       1  lig         0.0379
     11 H11        19.0796   16.3660   15.1635 H       1  lig         0.0288
     12 H12        17.9130   15.6200   16.2332 H       1  lig         0.0288
     13 H13        17.5906   18.5094   16.3617 H       1  lig         0.0492
     14 H14        19.2718   18.0709   16.6561 H       1  lig         0.0492
     15 C1         14.3606   17.4157   20.2526 C.ar    1  lig        -0.0611
     16 C2         14.3128   17.9366   18.9515 C.ar    1  lig        -0.0598
     17 C3         15.5457   16.8912   20.7820 C.ar    1  lig        -0.0520
     18 C4         15.4272   17.9641   18.1049 C.ar    1  lig        -0.0376
     19 C5         16.6619   16.9078   19.9452 C.ar    1  lig         0.0076
     20 C6         16.6407   17.4442   18.5698 C.ar    1  lig         0.0501
     21 C7         19.9415   15.5239   21.2271 C.ar    1  lig        -0.0611
     22 C8         20.6851   15.7586   20.0586 C.ar    1  lig        -0.0598
     23 C9         18.5827   15.8598   21.3037 C.ar    1  lig        -0.0520
     24 C10        20.1170   16.3498   18.9171 C.ar    1  lig        -0.0376
     25 C11        18.0171   16.4492   20.1808 C.ar    1  lig         0.0076
     26 C12        18.7690   16.7123   18.9331 C.ar    1  lig         0.0501
     27 C13        17.3144   17.8244   13.6432 C.2     1  lig         0.3561
     28 C14        16.9967   16.7293   14.6382 C.3     1  lig         0.0508
     29 C15        18.1263   16.5307   15.6676 C.3     1  lig        -0.0247
     30 C16        18.2457   17.6915   16.6719 C.3     1  lig         0.0244
     31 N1         17.8990   17.3036   18.0479 N.pl3   1  lig        -0.3398
     32 O1         16.5013   18.0678   12.6200 O.co2   1  lig        -0.2464
     33 O2         18.3240   18.5050   13.7523 O.co2   1  lig        -0.2464
@<TRIPOS>BOND
     1    27    33    1
     2    27    32    1
     3    27    28    1
     4    28    29    1
     5     9    28    1
     6    10    28    1
     7    29    30    1
     8    11    29    1
     9    12    29    1
    10    30    31    1
    11    13    30    1
    12    14    30    1
    13    26    31    1
    14    20    31    1
    15    24    26   ar
    16    25    26   ar
    17    22    24   ar
    18     8    24    1
    19    23    25   ar
    20    19    25    1
    21    21    23   ar
    22     7    23    1
    23    21    22   ar
    24     5    21    1
    25     6    22    1
    26    19    20   ar
    27    17    19   ar
    28    18    20   ar
    29    16    18   ar
    30     4    18    1
    31    15    17   ar
    32     3    17    1
    33    15    16   ar
    34     1    15    1
    35     2    16    1
@<TRIPOS>SUBSTRUCTURE
     1 lig         1 TEMP              0 ****  ****    0 ROOT


########## Name:		ligand
########## HA_RMSDs:		5.2625
########## HA_RMSDh:		4.4139
########## HA_RMSDm:		1.5780
########## Cluster Size:	1
##########    Grid Score:          -24.710640
##########      Grid_vdw:          -24.533081
##########       Grid_es:           -0.177560
##########    Int_energy:            3.043781

@<TRIPOS>MOLECULE
ligand
 33 35 1 0 0
SMALL
No Charge or Current Charge


@<TRIPOS>ATOM
      1 H1         11.9374   17.1894   17.5061 H       1  lig         0.0618
      2 H2         12.5449   16.5783   19.8035 H       1  lig         0.0618
      3 H3         13.6869   17.5990   15.7780 H       1  lig         0.0624
      4 H4         14.9001   16.3633   20.5317 H       1  lig         0.0638
      5 H5         18.2514   18.1149   13.6556 H       1  lig         0.0618
      6 H6         20.1192   17.8357   15.2307 H       1  lig         0.0618
      7 H7         15.8962   17.9226   14.4453 H       1  lig         0.0624
      8 H8         19.7820   17.1395   17.5718 H       1  lig         0.0638
      9 H9         18.0671   15.1034   22.2361 H       1  lig         0.0379
     10 H10        18.8703   13.6912   21.6071 H       1  lig         0.0379
     11 H11        17.1433   14.5024   19.9744 H       1  lig         0.0288
     12 H12        18.7428   14.7093   19.2956 H       1  lig         0.0288
     13 H13        18.7803   17.0879   19.7953 H       1  lig         0.0492
     14 H14        17.2766   16.9707   20.7066 H       1  lig         0.0492
     15 C1         12.9872   17.1060   17.7730 C.ar    1  lig        -0.0611
     16 C2         13.3394   16.7636   19.0865 C.ar    1  lig        -0.0598
     17 C3         13.9629   17.3386   16.7964 C.ar    1  lig        -0.0520
     18 C4         14.6687   16.6367   19.5059 C.ar    1  lig        -0.0376
     19 C5         15.2919   17.2208   17.2043 C.ar    1  lig         0.0076
     20 C6         15.6932   16.8675   18.5805 C.ar    1  lig         0.0501
     21 C7         18.0487   17.8209   14.6835 C.ar    1  lig        -0.0611
     22 C8         19.1229   17.5981   15.5609 C.ar    1  lig        -0.0598
     23 C9         16.7205   17.7306   15.1228 C.ar    1  lig        -0.0520
     24 C10        18.9277   17.2623   16.9116 C.ar    1  lig        -0.0376
     25 C11        16.5213   17.3938   16.4552 C.ar    1  lig         0.0076
     26 C12        17.6277   17.1514   17.4082 C.ar    1  lig         0.0501
     27 C13        20.0492   15.4838   21.6157 C.2     1  lig         0.3561
     28 C14        18.7320   14.7591   21.4430 C.3     1  lig         0.0508
     29 C15        18.0728   15.0629   20.0835 C.3     1  lig        -0.0247
     30 C16        17.8228   16.5641   19.8501 C.3     1  lig         0.0244
     31 N1         17.0618   16.8394   18.6216 N.pl3   1  lig        -0.3398
     32 O1         20.4007   15.9793   22.7981 O.co2   1  lig        -0.2464
     33 O2         20.8161   15.6351   20.6757 O.co2   1  lig        -0.2464
@<TRIPOS>BOND
     1    27    33    1
     2    27    32    1
     3    27    28    1
     4    28    29    1
     5     9    28    1
     6    10    28    1
     7    29    30    1
     8    11    29    1
     9    12    29    1
    10    30    31    1
    11    13    30    1
    12    14    30    1
    13    26    31    1
    14    20    31    1
    15    24    26   ar
    16    25    26   ar
    17    22    24   ar
    18     8    24    1
    19    23    25   ar
    20    19    25    1
    21    21    23   ar
    22     7    23    1
    23    21    22   ar
    24     5    21    1
    25     6    22    1
    26    19    20   ar
    27    17    19   ar
    28    18    20   ar
    29    16    18   ar
    30     4    18    1
    31    15    17   ar
    32     3    17    1
    33    15    16   ar
    34     1    15    1
    35     2    16    1
@<TRIPOS>SUBSTRUCTURE
     1 lig         1 TEMP              0 ****  ****    0 ROOT


########## Name:		ligand
########## HA_RMSDs:		12.7479
########## HA_RMSDh:		12.3066
########## HA_RMSDm:		10.7625
########## Cluster Size:	2
##########    Grid Score:          -24.611979
##########      Grid_vdw:          -24.867496
##########       Grid_es:            0.255519
##########    Int_energy:            2.094176

@<TRIPOS>MOLECULE
ligand
 33 35 1 0 0
SMALL
No Charge or Current Charge


@<TRIPOS>ATOM
      1 H1         18.6873   28.8848    7.9836 H       1  lig         0.0618
      2 H2         17.7479   28.9236   10.2500 H       1  lig         0.0618
      3 H3         21.0145   28.0933    7.5685 H       1  lig         0.0624
      4 H4         19.0514   28.2133   12.2299 H       1  lig         0.0638
      5 H5         25.6783   26.3464    8.4644 H       1  lig         0.0618
      6 H6         26.1796   26.0242   10.8503 H       1  lig         0.0618
      7 H7         23.4536   27.2098    7.7485 H       1  lig         0.0624
      8 H8         24.4763   26.3100   12.6098 H       1  lig         0.0638
      9 H9         21.3243   27.5505   15.8854 H       1  lig         0.0379
     10 H10        22.0674   29.0965   16.1903 H       1  lig         0.0379
     11 H11        22.9262   28.8449   14.0148 H       1  lig         0.0288
     12 H12        21.3201   29.3219   13.5101 H       1  lig         0.0288
     13 H13        20.6472   26.8419   13.5920 H       1  lig         0.0492
     14 H14        22.3638   26.4804   13.7591 H       1  lig         0.0492
     15 C1         19.3019   28.5597    8.8183 C.ar    1  lig        -0.0611
     16 C2         18.7717   28.5864   10.1163 C.ar    1  lig        -0.0598
     17 C3         20.6080   28.1176    8.5761 C.ar    1  lig        -0.0520
     18 C4         19.5008   28.1834   11.2411 C.ar    1  lig        -0.0376
     19 C5         21.3466   27.7189    9.6905 C.ar    1  lig         0.0076
     20 C6         20.8176   27.7413   11.0688 C.ar    1  lig         0.0501
     21 C7         24.8951   26.5000    9.2040 C.ar    1  lig        -0.0611
     22 C8         25.1686   26.2501   10.5591 C.ar    1  lig        -0.0598
     23 C9         23.6517   27.0009    8.7938 C.ar    1  lig        -0.0520
     24 C10        24.2156   26.4734   11.5677 C.ar    1  lig        -0.0376
     25 C11        22.7041   27.2185    9.7853 C.ar    1  lig         0.0076
     26 C12        22.9561   26.9663   11.2220 C.ar    1  lig         0.0501
     27 C13        19.9920   29.1719   15.6513 C.2     1  lig         0.3561
     28 C14        21.3783   28.5784   15.5245 C.3     1  lig         0.0508
     29 C15        21.8742   28.5608   14.0655 C.3     1  lig        -0.0247
     30 C16        21.6505   27.2093   13.3627 C.3     1  lig         0.0244
     31 N1         21.8043   27.2849   11.9016 N.pl3   1  lig        -0.3398
     32 O1         18.9123   28.4191   15.4643 O.co2   1  lig        -0.2464
     33 O2         19.8318   30.3532   15.9222 O.co2   1  lig        -0.2464
@<TRIPOS>BOND
     1    27    33    1
     2    27    32    1
     3    27    28    1
     4    28    29    1
     5     9    28    1
     6    10    28    1
     7    29    30    1
     8    11    29    1
     9    12    29    1
    10    30    31    1
    11    13    30    1
    12    14    30    1
    13    26    31    1
    14    20    31    1
    15    24    26   ar
    16    25    26   ar
    17    22    24   ar
    18     8    24    1
    19    23    25   ar
    20    19    25    1
    21    21    23   ar
    22     7    23    1
    23    21    22   ar
    24     5    21    1
    25     6    22    1
    26    19    20   ar
    27    17    19   ar
    28    18    20   ar
    29    16    18   ar
    30     4    18    1
    31    15    17   ar
    32     3    17    1
    33    15    16   ar
    34     1    15    1
    35     2    16    1
@<TRIPOS>SUBSTRUCTURE
     1 lig         1 TEMP              0 ****  ****    0 ROOT


########## Name:		ligand
########## HA_RMSDs:		12.4001
########## HA_RMSDh:		12.3941
########## HA_RMSDm:		10.5523
########## Cluster Size:	2
##########    Grid Score:          -24.545126
##########      Grid_vdw:          -24.275719
##########       Grid_es:           -0.269408
##########    Int_energy:            2.221479

@<TRIPOS>MOLECULE
ligand
 33 35 1 0 0
SMALL
No Charge or Current Charge


@<TRIPOS>ATOM
      1 H1         25.5555   25.9056    8.8468 H       1  lig         0.0618
      2 H2         25.8743   25.7563   11.2751 H       1  lig         0.0618
      3 H3         23.4654   26.8599    7.8794 H       1  lig         0.0624
      4 H4         24.1486   26.5107   12.8803 H       1  lig         0.0638
      5 H5         18.8407   28.8964    7.6157 H       1  lig         0.0618
      6 H6         17.7607   29.2013    9.8040 H       1  lig         0.0618
      7 H7         21.1194   27.9010    7.4618 H       1  lig         0.0624
      8 H8         18.9322   28.7651   11.9291 H       1  lig         0.0638
      9 H9         21.8527   28.1043   15.9324 H       1  lig         0.0379
     10 H10        22.1369   29.8220   15.9980 H       1  lig         0.0379
     11 H11        22.8092   29.2770   13.7499 H       1  lig         0.0288
     12 H12        21.1499   29.7832   13.5212 H       1  lig         0.0288
     13 H13        20.3582   27.4403   13.5452 H       1  lig         0.0492
     14 H14        22.0049   26.8752   13.8179 H       1  lig         0.0492
     15 C1         24.7668   26.2537    9.5078 C.ar    1  lig        -0.0611
     16 C2         24.9415   26.1641   10.8964 C.ar    1  lig        -0.0598
     17 C3         23.5961   26.7873    8.9559 C.ar    1  lig        -0.0520
     18 C4         23.9721   26.5914   11.8111 C.ar    1  lig        -0.0376
     19 C5         22.6199   27.2111    9.8581 C.ar    1  lig         0.0076
     20 C6         22.7731   27.1244   11.3240 C.ar    1  lig         0.0501
     21 C7         19.3959   28.6751    8.5250 C.ar    1  lig        -0.0611
     22 C8         18.7974   28.9143    9.7732 C.ar    1  lig        -0.0598
     23 C9         20.6710   28.1007    8.4285 C.ar    1  lig        -0.0520
     24 C10        19.4429   28.6064   10.9832 C.ar    1  lig        -0.0376
     25 C11        21.3161   27.7993    9.6207 C.ar    1  lig         0.0076
     26 C12        20.7174   28.0375   10.9534 C.ar    1  lig         0.0501
     27 C13        20.0762   29.2428   15.8514 C.2     1  lig         0.3561
     28 C14        21.5377   29.0572   15.5053 C.3     1  lig         0.0508
     29 C15        21.7761   29.0157   13.9833 C.3     1  lig        -0.0247
     30 C16        21.4095   27.6627   13.3463 C.3     1  lig         0.0244
     31 N1         21.6338   27.6283   11.8929 N.pl3   1  lig        -0.3398
     32 O1         19.2671   28.1939   15.9624 O.co2   1  lig        -0.2464
     33 O2         19.6050   30.3564   16.0312 O.co2   1  lig        -0.2464
@<TRIPOS>BOND
     1    27    33    1
     2    27    32    1
     3    27    28    1
     4    28    29    1
     5     9    28    1
     6    10    28    1
     7    29    30    1
     8    11    29    1
     9    12    29    1
    10    30    31    1
    11    13    30    1
    12    14    30    1
    13    26    31    1
    14    20    31    1
    15    24    26   ar
    16    25    26   ar
    17    22    24   ar
    18     8    24    1
    19    23    25   ar
    20    19    25    1
    21    21    23   ar
    22     7    23    1
    23    21    22   ar
    24     5    21    1
    25     6    22    1
    26    19    20   ar
    27    17    19   ar
    28    18    20   ar
    29    16    18   ar
    30     4    18    1
    31    15    17   ar
    32     3    17    1
    33    15    16   ar
    34     1    15    1
    35     2    16    1
@<TRIPOS>SUBSTRUCTURE
     1 lig         1 TEMP              0 ****  ****    0 ROOT


########## Name:		ligand
########## HA_RMSDs:		13.5109
########## HA_RMSDh:		13.3881
########## HA_RMSDm:		11.0458
########## Cluster Size:	2
##########    Grid Score:          -24.529831
##########      Grid_vdw:          -24.561710
##########       Grid_es:            0.031880
##########    Int_energy:            3.245899

@<TRIPOS>MOLECULE
ligand
 33 35 1 0 0
SMALL
No Charge or Current Charge


@<TRIPOS>ATOM
      1 H1         25.1180   31.9999   17.0481 H       1  lig         0.0618
      2 H2         26.6289   31.5396   15.1704 H       1  lig         0.0618
      3 H3         22.8556   30.9594   17.1645 H       1  lig         0.0624
      4 H4         25.9888   30.0560   13.2961 H       1  lig         0.0638
      5 H5         18.8067   28.2156   15.8673 H       1  lig         0.0618
      6 H6         19.0064   27.1215   13.6739 H       1  lig         0.0618
      7 H7         20.6568   29.6375   16.7405 H       1  lig         0.0624
      8 H8         21.0865   27.1797   12.3516 H       1  lig         0.0638
      9 H9         25.9690   27.5800   10.3510 H       1  lig         0.0379
     10 H10        26.3678   26.0083   10.9881 H       1  lig         0.0379
     11 H11        25.6611   27.3919   12.9000 H       1  lig         0.0288
     12 H12        24.3414   26.2912   12.5704 H       1  lig         0.0288
     13 H13        23.0816   28.0039   11.3565 H       1  lig         0.0492
     14 H14        24.4185   29.1422   11.5061 H       1  lig         0.0492
     15 C1         24.7885   31.3386   16.2518 C.ar    1  lig        -0.0611
     16 C2         25.6458   31.0778   15.1731 C.ar    1  lig        -0.0598
     17 C3         23.5160   30.7594   16.3248 C.ar    1  lig        -0.0520
     18 C4         25.2930   30.2375   14.1108 C.ar    1  lig        -0.0376
     19 C5         23.1509   29.9245   15.2684 C.ar    1  lig         0.0076
     20 C6         24.0293   29.6358   14.1174 C.ar    1  lig         0.0501
     21 C7         19.7421   28.2836   15.3155 C.ar    1  lig        -0.0611
     22 C8         19.8729   27.6015   14.0945 C.ar    1  lig        -0.0598
     23 C9         20.7716   29.0985   15.8068 C.ar    1  lig        -0.0520
     24 C10        21.0371   27.6865   13.3115 C.ar    1  lig        -0.0376
     25 C11        21.9264   29.1821   15.0402 C.ar    1  lig         0.0076
     26 C12        22.1003   28.4778   13.7500 C.ar    1  lig         0.0501
     27 C13        24.5336   26.1051    9.8790 C.2     1  lig         0.3561
     28 C14        25.5416   26.7020   10.8370 C.3     1  lig         0.0508
     29 C15        24.8949   27.1420   12.1648 C.3     1  lig        -0.0247
     30 C16        23.9073   28.3120   12.0027 C.3     1  lig         0.0244
     31 N1         23.3560   28.7847   13.2820 N.pl3   1  lig        -0.3398
     32 O1         24.7117   26.1946    8.5646 O.co2   1  lig        -0.2464
     33 O2         23.5334   25.5335   10.2880 O.co2   1  lig        -0.2464
@<TRIPOS>BOND
     1    27    33    1
     2    27    32    1
     3    27    28    1
     4    28    29    1
     5     9    28    1
     6    10    28    1
     7    29    30    1
     8    11    29    1
     9    12    29    1
    10    30    31    1
    11    13    30    1
    12    14    30    1
    13    26    31    1
    14    20    31    1
    15    24    26   ar
    16    25    26   ar
    17    22    24   ar
    18     8    24    1
    19    23    25   ar
    20    19    25    1
    21    21    23   ar
    22     7    23    1
    23    21    22   ar
    24     5    21    1
    25     6    22    1
    26    19    20   ar
    27    17    19   ar
    28    18    20   ar
    29    16    18   ar
    30     4    18    1
    31    15    17   ar
    32     3    17    1
    33    15    16   ar
    34     1    15    1
    35     2    16    1
@<TRIPOS>SUBSTRUCTURE
     1 lig         1 TEMP              0 ****  ****    0 ROOT


########## Name:		ligand
########## HA_RMSDs:		13.9087
########## HA_RMSDh:		13.6344
########## HA_RMSDm:		10.5587
########## Cluster Size:	3
##########    Grid Score:          -24.377817
##########      Grid_vdw:          -23.665520
##########       Grid_es:           -0.712298
##########    Int_energy:            2.090804

@<TRIPOS>MOLECULE
ligand
 33 35 1 0 0
SMALL
No Charge or Current Charge


@<TRIPOS>ATOM
      1 H1         21.7942   28.6475    6.4381 H       1  lig         0.0618
      2 H2         23.9890   27.5553    6.5404 H       1  lig         0.0618
      3 H3         20.3534   28.8332    8.4641 H       1  lig         0.0624
      4 H4         24.8729   26.5650    8.6289 H       1  lig         0.0638
      5 H5         18.7706   28.3144   13.2422 H       1  lig         0.0618
      6 H6         20.3029   27.0184   14.6636 H       1  lig         0.0618
      7 H7         19.3067   28.7081   10.8412 H       1  lig         0.0624
      8 H8         22.5093   26.2520   13.8742 H       1  lig         0.0638
      9 H9         26.9368   25.2841   12.6840 H       1  lig         0.0379
     10 H10        27.2196   25.5993   10.9940 H       1  lig         0.0379
     11 H11        25.6991   27.6906   11.2508 H       1  lig         0.0288
     12 H12        25.4609   27.2250   12.9207 H       1  lig         0.0288
     13 H13        24.1730   25.3216   12.4022 H       1  lig         0.0492
     14 H14        24.7735   25.2409   10.7475 H       1  lig         0.0492
     15 C1         22.1362   28.2311    7.3814 C.ar    1  lig        -0.0611
     16 C2         23.3869   27.5999    7.4433 C.ar    1  lig        -0.0598
     17 C3         21.3202   28.3391    8.5138 C.ar    1  lig        -0.0520
     18 C4         23.8957   27.0402    8.6210 C.ar    1  lig        -0.0376
     19 C5         21.8143   27.7795    9.6924 C.ar    1  lig         0.0076
     20 C6         23.1239   27.1042    9.7868 C.ar    1  lig         0.0501
     21 C7         19.7274   27.9858   12.8416 C.ar    1  lig        -0.0611
     22 C8         20.6269   27.3038   13.6778 C.ar    1  lig        -0.0598
     23 C9         20.0136   28.1979   11.4857 C.ar    1  lig        -0.0520
     24 C10        21.8577   26.8126   13.2095 C.ar    1  lig        -0.0376
     25 C11        21.2307   27.7196   11.0184 C.ar    1  lig         0.0076
     26 C12        22.2029   26.9975   11.8695 C.ar    1  lig         0.0501
     27 C13        28.1427   26.9845   12.3477 C.2     1  lig         0.3561
     28 C14        26.9960   26.0832   11.9440 C.3     1  lig         0.0508
     29 C15        25.6481   26.8297   11.9189 C.3     1  lig        -0.0247
     30 C16        24.4595   25.9276   11.5392 C.3     1  lig         0.0244
     31 N1         23.2838   26.6832   11.0802 N.pl3   1  lig        -0.3398
     32 O1         29.1106   26.5363   13.1411 O.co2   1  lig        -0.2464
     33 O2         28.2040   28.1424   11.9605 O.co2   1  lig        -0.2464
@<TRIPOS>BOND
     1    27    33    1
     2    27    32    1
     3    27    28    1
     4    28    29    1
     5     9    28    1
     6    10    28    1
     7    29    30    1
     8    11    29    1
     9    12    29    1
    10    30    31    1
    11    13    30    1
    12    14    30    1
    13    26    31    1
    14    20    31    1
    15    24    26   ar
    16    25    26   ar
    17    22    24   ar
    18     8    24    1
    19    23    25   ar
    20    19    25    1
    21    21    23   ar
    22     7    23    1
    23    21    22   ar
    24     5    21    1
    25     6    22    1
    26    19    20   ar
    27    17    19   ar
    28    18    20   ar
    29    16    18   ar
    30     4    18    1
    31    15    17   ar
    32     3    17    1
    33    15    16   ar
    34     1    15    1
    35     2    16    1
@<TRIPOS>SUBSTRUCTURE
     1 lig         1 TEMP              0 ****  ****    0 ROOT


########## Name:		ligand
########## HA_RMSDs:		13.9629
########## HA_RMSDh:		13.5805
########## HA_RMSDm:		9.6348
########## Cluster Size:	1
##########    Grid Score:          -23.412531
##########      Grid_vdw:          -23.088762
##########       Grid_es:           -0.323769
##########    Int_energy:            3.460905

@<TRIPOS>MOLECULE
ligand
 33 35 1 0 0
SMALL
No Charge or Current Charge


@<TRIPOS>ATOM
      1 H1         18.9644   28.4602   16.0727 H       1  lig         0.0618
      2 H2         19.1173   26.7659   14.3045 H       1  lig         0.0618
      3 H3         20.8185   30.0793   16.4675 H       1  lig         0.0624
      4 H4         21.1077   26.5546   12.8494 H       1  lig         0.0638
      5 H5         25.2806   32.4158   15.9822 H       1  lig         0.0618
      6 H6         26.7545   31.4064   14.2920 H       1  lig         0.0618
      7 H7         23.0276   31.4504   16.4290 H       1  lig         0.0624
      8 H8         26.0162   29.5716   12.8198 H       1  lig         0.0638
      9 H9         22.9352   25.7762   10.3538 H       1  lig         0.0379
     10 H10        22.4563   26.7896    9.0200 H       1  lig         0.0379
     11 H11        22.3022   28.3192   10.8640 H       1  lig         0.0288
     12 H12        23.9318   28.6227   10.3036 H       1  lig         0.0288
     13 H13        24.9597   27.5769   12.0943 H       1  lig         0.0492
     14 H14        23.6204   26.4632   12.3615 H       1  lig         0.0492
     15 C1         19.8602   28.4121   15.4600 C.ar    1  lig        -0.0611
     16 C2         19.9550   27.4411   14.4526 C.ar    1  lig        -0.0598
     17 C3         20.8968   29.3247   15.6893 C.ar    1  lig        -0.0520
     18 C4         21.0756   27.3168   13.6232 C.ar    1  lig        -0.0376
     19 C5         22.0217   29.2066   14.8724 C.ar    1  lig         0.0076
     20 C6         22.1525   28.1916   13.8082 C.ar    1  lig         0.0501
     21 C7         24.9122   31.5972   15.3672 C.ar    1  lig        -0.0611
     22 C8         25.7349   31.0688   14.3586 C.ar    1  lig        -0.0598
     23 C9         23.6498   31.0503   15.6363 C.ar    1  lig        -0.0520
     24 C10        25.3365   29.9816   13.5618 C.ar    1  lig        -0.0376
     25 C11        23.2483   29.9793   14.8487 C.ar    1  lig         0.0076
     26 C12        24.0873   29.3968   13.7774 C.ar    1  lig         0.0501
     27 C13        24.5574   26.3724    9.1408 C.2     1  lig         0.3561
     28 C14        23.2200   26.6631    9.7865 C.3     1  lig         0.0508
     29 C15        23.2865   27.8627   10.7516 C.3     1  lig        -0.0247
     30 C16        23.8700   27.5031   12.1304 C.3     1  lig         0.0244
     31 N1         23.3727   28.3675   13.2119 N.pl3   1  lig        -0.3398
     32 O1         24.6218   25.8312    7.9283 O.co2   1  lig        -0.2464
     33 O2         25.6060   26.6219    9.7176 O.co2   1  lig        -0.2464
@<TRIPOS>BOND
     1    27    33    1
     2    27    32    1
     3    27    28    1
     4    28    29    1
     5     9    28    1
     6    10    28    1
     7    29    30    1
     8    11    29    1
     9    12    29    1
    10    30    31    1
    11    13    30    1
    12    14    30    1
    13    26    31    1
    14    20    31    1
    15    24    26   ar
    16    25    26   ar
    17    22    24   ar
    18     8    24    1
    19    23    25   ar
    20    19    25    1
    21    21    23   ar
    22     7    23    1
    23    21    22   ar
    24     5    21    1
    25     6    22    1
    26    19    20   ar
    27    17    19   ar
    28    18    20   ar
    29    16    18   ar
    30     4    18    1
    31    15    17   ar
    32     3    17    1
    33    15    16   ar
    34     1    15    1
    35     2    16    1
@<TRIPOS>SUBSTRUCTURE
     1 lig         1 TEMP              0 ****  ****    0 ROOT


########## Name:		ligand
########## HA_RMSDs:		13.1885
########## HA_RMSDh:		13.1880
########## HA_RMSDm:		10.7121
########## Cluster Size:	1
##########    Grid Score:          -22.502043
##########      Grid_vdw:          -22.050541
##########       Grid_es:           -0.451503
##########    Int_energy:            2.892097

@<TRIPOS>MOLECULE
ligand
 33 35 1 0 0
SMALL
No Charge or Current Charge


@<TRIPOS>ATOM
      1 H1         28.5292   25.8570   10.8740 H       1  lig         0.0618
      2 H2         27.0965   25.5994   12.8492 H       1  lig         0.0618
      3 H3         27.6066   26.6966    8.7156 H       1  lig         0.0624
      4 H4         24.6791   26.1264   12.8024 H       1  lig         0.0638
      5 H5         24.2771   28.3758    5.2951 H       1  lig         0.0618
      6 H6         21.9633   28.4739    6.1224 H       1  lig         0.0618
      7 H7         26.1128   27.5721    6.7755 H       1  lig         0.0624
      8 H8         21.3789   28.0141    8.4732 H       1  lig         0.0638
      9 H9         20.6390   29.2937   13.3275 H       1  lig         0.0379
     10 H10        19.8535   28.2376   12.1861 H       1  lig         0.0379
     11 H11        22.8956   28.5602   12.6473 H       1  lig         0.0288
     12 H12        21.9856   29.1549   11.2761 H       1  lig         0.0288
     13 H13        21.3974   26.7958   10.6314 H       1  lig         0.0492
     14 H14        22.4245   26.2162   11.9408 H       1  lig         0.0492
     15 C1         27.4742   26.1052   10.8002 C.ar    1  lig        -0.0611
     16 C2         26.6499   25.9531   11.9245 C.ar    1  lig        -0.0598
     17 C3         26.9644   26.5751    9.5839 C.ar    1  lig        -0.0520
     18 C4         25.2826   26.2519   11.9075 C.ar    1  lig        -0.0376
     19 C5         25.6013   26.8706    9.5533 C.ar    1  lig         0.0076
     20 C6         24.7078   26.7154   10.7184 C.ar    1  lig         0.0501
     21 C7         24.0691   28.1489    6.3388 C.ar    1  lig        -0.0611
     22 C8         22.7557   28.2711    6.8219 C.ar    1  lig        -0.0598
     23 C9         25.1051   27.6824    7.1599 C.ar    1  lig        -0.0520
     24 C10        22.4131   27.9484    8.1462 C.ar    1  lig        -0.0376
     25 C11        24.7738   27.3671    8.4711 C.ar    1  lig         0.0076
     26 C12        23.4020   27.4837    9.0150 C.ar    1  lig         0.0501
     27 C13        20.7292   27.2584   13.8826 C.2     1  lig         0.3561
     28 C14        20.7355   28.3342   12.8181 C.3     1  lig         0.0508
     29 C15        22.0433   28.3405   12.0029 C.3     1  lig        -0.0247
     30 C16        22.2829   27.0327   11.2264 C.3     1  lig         0.0244
     31 N1         23.4500   27.0962   10.3332 N.pl3   1  lig        -0.3398
     32 O1         19.5914   26.6822   14.2576 O.co2   1  lig        -0.2464
     33 O2         21.7641   26.8985   14.4246 O.co2   1  lig        -0.2464
@<TRIPOS>BOND
     1    27    33    1
     2    27    32    1
     3    27    28    1
     4    28    29    1
     5     9    28    1
     6    10    28    1
     7    29    30    1
     8    11    29    1
     9    12    29    1
    10    30    31    1
    11    13    30    1
    12    14    30    1
    13    26    31    1
    14    20    31    1
    15    24    26   ar
    16    25    26   ar
    17    22    24   ar
    18     8    24    1
    19    23    25   ar
    20    19    25    1
    21    21    23   ar
    22     7    23    1
    23    21    22   ar
    24     5    21    1
    25     6    22    1
    26    19    20   ar
    27    17    19   ar
    28    18    20   ar
    29    16    18   ar
    30     4    18    1
    31    15    17   ar
    32     3    17    1
    33    15    16   ar
    34     1    15    1
    35     2    16    1
@<TRIPOS>SUBSTRUCTURE
     1 lig         1 TEMP              0 ****  ****    0 ROOT


########## Name:		ligand
########## HA_RMSDs:		5.2443
########## HA_RMSDh:		4.9304
########## HA_RMSDm:		2.2978
########## Cluster Size:	1
##########    Grid Score:          -22.351545
##########      Grid_vdw:          -22.391073
##########       Grid_es:            0.039528
##########    Int_energy:            6.311912

@<TRIPOS>MOLECULE
ligand
 33 35 1 0 0
SMALL
No Charge or Current Charge


@<TRIPOS>ATOM
      1 H1         15.4897   12.7065   20.4470 H       1  lig         0.0618
      2 H2         17.3455   13.1950   21.9761 H       1  lig         0.0618
      3 H3         15.2983   13.8605   18.2455 H       1  lig         0.0624
      4 H4         19.0948   14.8601   21.4368 H       1  lig         0.0638
      5 H5         16.3346   16.9898   14.4064 H       1  lig         0.0618
      6 H6         18.2787   18.4428   14.8031 H       1  lig         0.0618
      7 H7         15.6012   15.3621   16.1443 H       1  lig         0.0624
      8 H8         19.7141   18.2166   16.7949 H       1  lig         0.0638
      9 H9         23.4496   17.3627   18.3819 H       1  lig         0.0379
     10 H10        22.2639   18.6274   18.5549 H       1  lig         0.0379
     11 H11        21.8584   15.6080   19.0967 H       1  lig         0.0288
     12 H12        21.2521   16.5009   17.7193 H       1  lig         0.0288
     13 H13        20.0419   18.0001   19.5591 H       1  lig         0.0492
     14 H14        20.2530   16.5642   20.5586 H       1  lig         0.0492
     15 C1         16.2330   13.4451   20.1603 C.ar    1  lig        -0.0611
     16 C2         17.2917   13.7326   21.0339 C.ar    1  lig        -0.0598
     17 C3         16.1172   14.0889   18.9226 C.ar    1  lig        -0.0520
     18 C4         18.2870   14.6704   20.7353 C.ar    1  lig        -0.0376
     19 C5         17.1003   15.0303   18.6166 C.ar    1  lig         0.0076
     20 C6         18.2229   15.3580   19.5179 C.ar    1  lig         0.0501
     21 C7         16.9278   16.8599   15.3094 C.ar    1  lig        -0.0611
     22 C8         18.0755   17.6474   15.4990 C.ar    1  lig        -0.0598
     23 C9         16.4986   15.9531   16.2885 C.ar    1  lig        -0.0520
     24 C10        18.8574   17.5612   16.6637 C.ar    1  lig        -0.0376
     25 C11        17.2702   15.8595   17.4393 C.ar    1  lig         0.0076
     26 C12        18.4851   16.6721   17.6735 C.ar    1  lig         0.0501
     27 C13        23.0060   17.8140   20.3964 C.2     1  lig         0.3561
     28 C14        22.5711   17.6618   18.9549 C.3     1  lig         0.0508
     29 C15        21.4833   16.5836   18.7844 C.3     1  lig        -0.0247
     30 C16        20.1752   16.9160   19.5255 C.3     1  lig         0.0244
     31 N1         18.9877   16.3123   18.9015 N.pl3   1  lig        -0.3398
     32 O1         24.2806   18.0386   20.7001 O.co2   1  lig        -0.2464
     33 O2         22.2009   17.7292   21.3125 O.co2   1  lig        -0.2464
@<TRIPOS>BOND
     1    27    33    1
     2    27    32    1
     3    27    28    1
     4    28    29    1
     5     9    28    1
     6    10    28    1
     7    29    30    1
     8    11    29    1
     9    12    29    1
    10    30    31    1
    11    13    30    1
    12    14    30    1
    13    26    31    1
    14    20    31    1
    15    24    26   ar
    16    25    26   ar
    17    22    24   ar
    18     8    24    1
    19    23    25   ar
    20    19    25    1
    21    21    23   ar
    22     7    23    1
    23    21    22   ar
    24     5    21    1
    25     6    22    1
    26    19    20   ar
    27    17    19   ar
    28    18    20   ar
    29    16    18   ar
    30     4    18    1
    31    15    17   ar
    32     3    17    1
    33    15    16   ar
    34     1    15    1
    35     2    16    1
@<TRIPOS>SUBSTRUCTURE
     1 lig         1 TEMP              0 ****  ****    0 ROOT


########## Name:		ligand
########## HA_RMSDs:		12.7294
########## HA_RMSDh:		12.4102
########## HA_RMSDm:		10.6891
########## Cluster Size:	1
##########    Grid Score:          -22.081215
##########      Grid_vdw:          -21.843582
##########       Grid_es:           -0.237633
##########    Int_energy:            3.403896

@<TRIPOS>MOLECULE
ligand
 33 35 1 0 0
SMALL
No Charge or Current Charge


@<TRIPOS>ATOM
      1 H1         25.0740   29.1877    9.7884 H       1  lig         0.0618
      2 H2         23.2981   27.5067    9.5857 H       1  lig         0.0618
      3 H3         25.4515   30.4094   11.9284 H       1  lig         0.0624
      4 H4         21.7832   26.9562   11.4634 H       1  lig         0.0638
      5 H5         24.8353   31.9218   16.7178 H       1  lig         0.0618
      6 H6         22.9096   30.8908   17.8476 H       1  lig         0.0618
      7 H7         25.3568   31.3585   14.3475 H       1  lig         0.0624
      8 H8         21.5581   29.1141   16.8010 H       1  lig         0.0638
      9 H9         17.9919   28.7614   12.9489 H       1  lig         0.0379
     10 H10        19.2992   27.9453   12.1362 H       1  lig         0.0379
     11 H11        19.0345   28.0480   15.2122 H       1  lig         0.0288
     12 H12        19.8259   29.3150   14.3010 H       1  lig         0.0288
     13 H13        20.8834   26.6813   13.5461 H       1  lig         0.0492
     14 H14        21.0505   26.9916   15.2727 H       1  lig         0.0492
     15 C1         24.4380   28.9819   10.6447 C.ar    1  lig        -0.0611
     16 C2         23.4173   28.0270   10.5317 C.ar    1  lig        -0.0598
     17 C3         24.6565   29.6734   11.8423 C.ar    1  lig        -0.0520
     18 C4         22.5583   27.7072   11.5895 C.ar    1  lig        -0.0376
     19 C5         23.8025   29.3673   12.9022 C.ar    1  lig         0.0076
     20 C6         22.7162   28.3715   12.8114 C.ar    1  lig         0.0501
     21 C7         24.2609   31.1518   16.2067 C.ar    1  lig        -0.0611
     22 C8         23.2035   30.5193   16.8813 C.ar    1  lig        -0.0598
     23 C9         24.5514   30.8528   14.8683 C.ar    1  lig        -0.0520
     24 C10        22.3943   29.5512   16.2621 C.ar    1  lig        -0.0376
     25 C11        23.7588   29.8931   14.2527 C.ar    1  lig         0.0076
     26 C12        22.6372   29.2057   14.9315 C.ar    1  lig         0.0501
     27 C13        17.9425   26.6650   13.1962 C.2     1  lig         0.3561
     28 C14        18.7195   27.9563   13.0584 C.3     1  lig         0.0508
     29 C15        19.5912   28.2474   14.2955 C.3     1  lig        -0.0247
     30 C16        20.9219   27.4729   14.2986 C.3     1  lig         0.0244
     31 N1         22.0886   28.3269   14.0278 N.pl3   1  lig        -0.3398
     32 O1         16.8755   26.4315   12.4384 O.co2   1  lig        -0.2464
     33 O2         18.2720   25.8117   14.0072 O.co2   1  lig        -0.2464
@<TRIPOS>BOND
     1    27    33    1
     2    27    32    1
     3    27    28    1
     4    28    29    1
     5     9    28    1
     6    10    28    1
     7    29    30    1
     8    11    29    1
     9    12    29    1
    10    30    31    1
    11    13    30    1
    12    14    30    1
    13    26    31    1
    14    20    31    1
    15    24    26   ar
    16    25    26   ar
    17    22    24   ar
    18     8    24    1
    19    23    25   ar
    20    19    25    1
    21    21    23   ar
    22     7    23    1
    23    21    22   ar
    24     5    21    1
    25     6    22    1
    26    19    20   ar
    27    17    19   ar
    28    18    20   ar
    29    16    18   ar
    30     4    18    1
    31    15    17   ar
    32     3    17    1
    33    15    16   ar
    34     1    15    1
    35     2    16    1
@<TRIPOS>SUBSTRUCTURE
     1 lig         1 TEMP              0 ****  ****    0 ROOT


########## Name:		ligand
########## HA_RMSDs:		14.2899
########## HA_RMSDh:		14.2713
########## HA_RMSDm:		8.1037
########## Cluster Size:	3
##########    Grid Score:          -21.826193
##########      Grid_vdw:          -22.213211
##########       Grid_es:            0.387018
##########    Int_energy:            2.117259

@<TRIPOS>MOLECULE
ligand
 33 35 1 0 0
SMALL
No Charge or Current Charge


@<TRIPOS>ATOM
      1 H1         16.7592   21.2933    6.5855 H       1  lig         0.0618
      2 H2         16.0883   19.1231    7.5132 H       1  lig         0.0618
      3 H3         15.1210   22.7445    5.3917 H       1  lig         0.0624
      4 H4         13.7824   18.2519    7.2948 H       1  lig         0.0638
      5 H5         10.7804   24.3147    3.3184 H       1  lig         0.0618
      6 H6          8.9556   22.6726    3.4650 H       1  lig         0.0618
      7 H7         13.0294   23.7875    4.2519 H       1  lig         0.0624
      8 H8          9.1759   20.5590    4.7152 H       1  lig         0.0638
      9 H9          9.2862   16.6409    5.9361 H       1  lig         0.0379
     10 H10         9.9083   15.7697    4.5616 H       1  lig         0.0379
     11 H11        10.8685   17.9253    4.1812 H       1  lig         0.0288
     12 H12        12.1353   17.1843    5.1341 H       1  lig         0.0288
     13 H13        11.3502   18.2365    7.1942 H       1  lig         0.0492
     14 H14         9.9390   18.8927    6.3676 H       1  lig         0.0492
     15 C1         15.7328   20.9588    6.4639 C.ar    1  lig        -0.0611
     16 C2         15.3463   19.7162    6.9865 C.ar    1  lig        -0.0598
     17 C3         14.8198   21.7798    5.7913 C.ar    1  lig        -0.0520
     18 C4         14.0436   19.2174    6.8703 C.ar    1  lig        -0.0376
     19 C5         13.5196   21.2905    5.6641 C.ar    1  lig         0.0076
     20 C6         13.0848   19.9846    6.1985 C.ar    1  lig         0.0501
     21 C7         10.9329   23.3891    3.8697 C.ar    1  lig        -0.0611
     22 C8          9.8664   22.4850    4.0066 C.ar    1  lig        -0.0598
     23 C9         12.2057   23.0939    4.3777 C.ar    1  lig        -0.0520
     24 C10        10.0112   21.2522    4.6659 C.ar    1  lig        -0.0376
     25 C11        12.3536   21.8796    5.0349 C.ar    1  lig         0.0076
     26 C12        11.2533   20.9030    5.1989 C.ar    1  lig         0.0501
     27 C13        10.8676   15.3319    6.4302 C.2     1  lig         0.3561
     28 C14        10.2084   16.2954    5.4673 C.3     1  lig         0.0508
     29 C15        11.0955   17.5196    5.1680 C.3     1  lig        -0.0247
     30 C16        10.9912   18.6228    6.2370 C.3     1  lig         0.0244
     31 N1         11.7577   19.8315    5.8971 N.pl3   1  lig        -0.3398
     32 O1         10.7626   15.5076    7.7437 O.co2   1  lig        -0.2464
     33 O2         11.5140   14.3762    6.0258 O.co2   1  lig        -0.2464
@<TRIPOS>BOND
     1    27    33    1
     2    27    32    1
     3    27    28    1
     4    28    29    1
     5     9    28    1
     6    10    28    1
     7    29    30    1
     8    11    29    1
     9    12    29    1
    10    30    31    1
    11    13    30    1
    12    14    30    1
    13    26    31    1
    14    20    31    1
    15    24    26   ar
    16    25    26   ar
    17    22    24   ar
    18     8    24    1
    19    23    25   ar
    20    19    25    1
    21    21    23   ar
    22     7    23    1
    23    21    22   ar
    24     5    21    1
    25     6    22    1
    26    19    20   ar
    27    17    19   ar
    28    18    20   ar
    29    16    18   ar
    30     4    18    1
    31    15    17   ar
    32     3    17    1
    33    15    16   ar
    34     1    15    1
    35     2    16    1
@<TRIPOS>SUBSTRUCTURE
     1 lig         1 TEMP              0 ****  ****    0 ROOT


########## Name:		ligand
########## HA_RMSDs:		12.4618
########## HA_RMSDh:		12.2968
########## HA_RMSDm:		11.1756
########## Cluster Size:	2
##########    Grid Score:          -21.698612
##########      Grid_vdw:          -21.246641
##########       Grid_es:           -0.451970
##########    Int_energy:            2.203003

@<TRIPOS>MOLECULE
ligand
 33 35 1 0 0
SMALL
No Charge or Current Charge


@<TRIPOS>ATOM
      1 H1         22.1735   32.4899   16.9004 H       1  lig         0.0618
      2 H2         19.8026   31.8677   16.7919 H       1  lig         0.0618
      3 H3         23.8821   31.2925   15.5359 H       1  lig         0.0624
      4 H4         18.9882   30.0212   15.3597 H       1  lig         0.0638
      5 H5         25.9243   27.9577   12.3245 H       1  lig         0.0618
      6 H6         24.3156   26.3321   11.4205 H       1  lig         0.0618
      7 H7         25.1809   29.7035   13.9391 H       1  lig         0.0624
      8 H8         21.8956   26.4768   11.8696 H       1  lig         0.0638
      9 H9         16.9671   28.4144   13.1729 H       1  lig         0.0379
     10 H10        16.8365   28.6857   11.4569 H       1  lig         0.0379
     11 H11        19.0770   29.4566   12.1102 H       1  lig         0.0288
     12 H12        19.3107   27.9214   11.3037 H       1  lig         0.0288
     13 H13        19.8376   26.7523   13.2509 H       1  lig         0.0492
     14 H14        18.9618   27.8715   14.2929 H       1  lig         0.0492
     15 C1         21.8686   31.6727   16.2529 C.ar    1  lig        -0.0611
     16 C2         20.5156   31.3089   16.1927 C.ar    1  lig        -0.0598
     17 C3         22.8349   31.0052   15.4909 C.ar    1  lig        -0.0520
     18 C4         20.0461   30.2682   15.3830 C.ar    1  lig        -0.0376
     19 C5         22.3796   29.9619   14.6844 C.ar    1  lig         0.0076
     20 C6         20.9632   29.5527   14.6044 C.ar    1  lig         0.0501
     21 C7         24.8677   28.0562   12.5648 C.ar    1  lig        -0.0611
     22 C8         23.9449   27.1650   11.9924 C.ar    1  lig        -0.0598
     23 C9         24.4609   29.0312   13.4863 C.ar    1  lig        -0.0520
     24 C10        22.5738   27.2095   12.2983 C.ar    1  lig        -0.0376
     25 C11        23.1065   29.0836   13.7885 C.ar    1  lig         0.0076
     26 C12        22.1057   28.1622   13.2050 C.ar    1  lig         0.0501
     27 C13        17.0598   26.6336   12.0421 C.2     1  lig         0.3561
     28 C14        17.3709   28.1053   12.2080 C.3     1  lig         0.0508
     29 C15        18.8862   28.3861   12.1974 C.3     1  lig        -0.0247
     30 C16        19.6208   27.8097   13.4217 C.3     1  lig         0.0244
     31 N1         20.8799   28.5085   13.7222 N.pl3   1  lig        -0.3398
     32 O1         16.9194   25.8462   13.1040 O.co2   1  lig        -0.2464
     33 O2         16.9360   26.1341   10.9332 O.co2   1  lig        -0.2464
@<TRIPOS>BOND
     1    27    33    1
     2    27    32    1
     3    27    28    1
     4    28    29    1
     5     9    28    1
     6    10    28    1
     7    29    30    1
     8    11    29    1
     9    12    29    1
    10    30    31    1
    11    13    30    1
    12    14    30    1
    13    26    31    1
    14    20    31    1
    15    24    26   ar
    16    25    26   ar
    17    22    24   ar
    18     8    24    1
    19    23    25   ar
    20    19    25    1
    21    21    23   ar
    22     7    23    1
    23    21    22   ar
    24     5    21    1
    25     6    22    1
    26    19    20   ar
    27    17    19   ar
    28    18    20   ar
    29    16    18   ar
    30     4    18    1
    31    15    17   ar
    32     3    17    1
    33    15    16   ar
    34     1    15    1
    35     2    16    1
@<TRIPOS>SUBSTRUCTURE
     1 lig         1 TEMP              0 ****  ****    0 ROOT


########## Name:		ligand
########## HA_RMSDs:		12.1579
########## HA_RMSDh:		12.0830
########## HA_RMSDm:		10.3202
########## Cluster Size:	1
##########    Grid Score:          -21.672680
##########      Grid_vdw:          -21.989120
##########       Grid_es:            0.316442
##########    Int_energy:            2.711681

@<TRIPOS>MOLECULE
ligand
 33 35 1 0 0
SMALL
No Charge or Current Charge


@<TRIPOS>ATOM
      1 H1         22.2452   28.6791   16.0584 H       1  lig         0.0618
      2 H2         19.8505   28.4974   16.5617 H       1  lig         0.0618
      3 H3         23.0741   28.6227   13.7080 H       1  lig         0.0624
      4 H4         18.1473   28.2243   14.7874 H       1  lig         0.0638
      5 H5         23.0493   28.2778    8.6597 H       1  lig         0.0618
      6 H6         20.8230   27.8627    7.7009 H       1  lig         0.0618
      7 H7         23.3431   28.4781   11.1256 H       1  lig         0.0624
      8 H8         18.7739   27.8514    9.0720 H       1  lig         0.0638
      9 H9         14.7064   29.9680   11.8880 H       1  lig         0.0379
     10 H10        15.3226   29.3590   10.3765 H       1  lig         0.0379
     11 H11        16.6569   29.4582   13.1353 H       1  lig         0.0288
     12 H12        17.2685   30.0341   11.6003 H       1  lig         0.0288
     13 H13        17.3012   27.5163   10.8702 H       1  lig         0.0492
     14 H14        17.1947   27.1787   12.5966 H       1  lig         0.0492
     15 C1         21.5386   28.5630   15.2414 C.ar    1  lig        -0.0611
     16 C2         20.1696   28.4520   15.5245 C.ar    1  lig        -0.0598
     17 C3         22.0130   28.5314   13.9247 C.ar    1  lig        -0.0520
     18 C4         19.1995   28.3006   14.5270 C.ar    1  lig        -0.0376
     19 C5         21.0557   28.3748   12.9220 C.ar    1  lig         0.0076
     20 C6         19.6090   28.2498   13.1895 C.ar    1  lig         0.0501
     21 C7         22.1770   28.2678    9.3101 C.ar    1  lig        -0.0611
     22 C8         20.9008   28.0965    8.7485 C.ar    1  lig        -0.0598
     23 C9         22.3534   28.3653   10.6974 C.ar    1  lig        -0.0520
     24 C10        19.7397   28.0277    9.5376 C.ar    1  lig        -0.0376
     25 C11        21.2094   28.3034   11.4820 C.ar    1  lig         0.0076
     26 C12        19.8493   28.1244   10.9260 C.ar    1  lig         0.0501
     27 C13        14.5980   27.8648   11.7350 C.2     1  lig         0.3561
     28 C14        15.3075   29.1706   11.4493 C.3     1  lig         0.0508
     29 C15        16.7160   29.2179   12.0729 C.3     1  lig        -0.0247
     30 C16        17.5192   27.9214   11.8615 C.3     1  lig         0.0244
     31 N1         18.9722   28.1149   11.9846 N.pl3   1  lig        -0.3398
     32 O1         14.0673   27.6289   12.9308 O.co2   1  lig        -0.2464
     33 O2         14.5007   26.9971   10.8793 O.co2   1  lig        -0.2464
@<TRIPOS>BOND
     1    27    33    1
     2    27    32    1
     3    27    28    1
     4    28    29    1
     5     9    28    1
     6    10    28    1
     7    29    30    1
     8    11    29    1
     9    12    29    1
    10    30    31    1
    11    13    30    1
    12    14    30    1
    13    26    31    1
    14    20    31    1
    15    24    26   ar
    16    25    26   ar
    17    22    24   ar
    18     8    24    1
    19    23    25   ar
    20    19    25    1
    21    21    23   ar
    22     7    23    1
    23    21    22   ar
    24     5    21    1
    25     6    22    1
    26    19    20   ar
    27    17    19   ar
    28    18    20   ar
    29    16    18   ar
    30     4    18    1
    31    15    17   ar
    32     3    17    1
    33    15    16   ar
    34     1    15    1
    35     2    16    1
@<TRIPOS>SUBSTRUCTURE
     1 lig         1 TEMP              0 ****  ****    0 ROOT


########## Name:		ligand
########## HA_RMSDs:		15.2643
########## HA_RMSDh:		15.1256
########## HA_RMSDm:		12.3254
########## Cluster Size:	1
##########    Grid Score:          -21.657011
##########      Grid_vdw:          -21.551069
##########       Grid_es:           -0.105942
##########    Int_energy:            1.913418

@<TRIPOS>MOLECULE
ligand
 33 35 1 0 0
SMALL
No Charge or Current Charge


@<TRIPOS>ATOM
      1 H1         24.7169   29.4825    4.1904 H       1  lig         0.0618
      2 H2         26.5989   28.2110    5.1189 H       1  lig         0.0618
      3 H3         22.5529   29.6575    5.4156 H       1  lig         0.0624
      4 H4         26.4471   27.0232    7.2845 H       1  lig         0.0638
      5 H5         19.0395   28.9710    8.9919 H       1  lig         0.0618
      6 H6         19.7456   27.4682   10.8060 H       1  lig         0.0618
      7 H7         20.5777   29.4694    7.0964 H       1  lig         0.0624
      8 H8         22.0383   26.5757   10.9669 H       1  lig         0.0638
      9 H9         25.9241   26.7477   12.7525 H       1  lig         0.0379
     10 H10        25.6205   25.2442   11.9262 H       1  lig         0.0379
     11 H11        26.5735   27.4081   10.0894 H       1  lig         0.0288
     12 H12        25.1535   27.8849   10.9939 H       1  lig         0.0288
     13 H13        24.1297   25.5872   10.2461 H       1  lig         0.0492
     14 H14        25.4021   25.6011    9.0269 H       1  lig         0.0492
     15 C1         24.5982   28.9814    5.1470 C.ar    1  lig        -0.0611
     16 C2         25.6687   28.2478    5.6785 C.ar    1  lig        -0.0598
     17 C3         23.3792   29.0843    5.8276 C.ar    1  lig        -0.0520
     18 C4         25.5924   27.5759    6.9040 C.ar    1  lig        -0.0376
     19 C5         23.2892   28.4135    7.0476 C.ar    1  lig         0.0076
     20 C6         24.3967   27.6294    7.6295 C.ar    1  lig         0.0501
     21 C7         20.0591   28.5914    9.0096 C.ar    1  lig        -0.0611
     22 C8         20.4764   27.7874   10.0833 C.ar    1  lig        -0.0598
     23 C9         20.9123   28.8640    7.9312 C.ar    1  lig        -0.0520
     24 C10        21.7644   27.2280   10.1421 C.ar    1  lig        -0.0376
     25 C11        22.1881   28.3185    7.9862 C.ar    1  lig         0.0076
     26 C12        22.6627   27.4678    9.1007 C.ar    1  lig         0.0501
     27 C13        27.6503   25.9352   11.8478 C.2     1  lig         0.3561
     28 C14        26.1583   26.1882   11.8460 C.3     1  lig         0.0508
     29 C15        25.7086   27.0175   10.6274 C.3     1  lig        -0.0247
     30 C16        24.7882   26.2406    9.6684 C.3     1  lig         0.0244
     31 N1         23.9625   27.1166    8.8229 N.pl3   1  lig        -0.3398
     32 O1         28.4388   26.5351   12.7341 O.co2   1  lig        -0.2464
     33 O2         28.1651   25.1809   11.0351 O.co2   1  lig        -0.2464
@<TRIPOS>BOND
     1    27    33    1
     2    27    32    1
     3    27    28    1
     4    28    29    1
     5     9    28    1
     6    10    28    1
     7    29    30    1
     8    11    29    1
     9    12    29    1
    10    30    31    1
    11    13    30    1
    12    14    30    1
    13    26    31    1
    14    20    31    1
    15    24    26   ar
    16    25    26   ar
    17    22    24   ar
    18     8    24    1
    19    23    25   ar
    20    19    25    1
    21    21    23   ar
    22     7    23    1
    23    21    22   ar
    24     5    21    1
    25     6    22    1
    26    19    20   ar
    27    17    19   ar
    28    18    20   ar
    29    16    18   ar
    30     4    18    1
    31    15    17   ar
    32     3    17    1
    33    15    16   ar
    34     1    15    1
    35     2    16    1
@<TRIPOS>SUBSTRUCTURE
     1 lig         1 TEMP              0 ****  ****    0 ROOT


########## Name:		ligand
########## HA_RMSDs:		12.9449
########## HA_RMSDh:		12.8844
########## HA_RMSDm:		10.4751
########## Cluster Size:	1
##########    Grid Score:          -21.601885
##########      Grid_vdw:          -21.754875
##########       Grid_es:            0.152990
##########    Int_energy:            1.956676

@<TRIPOS>MOLECULE
ligand
 33 35 1 0 0
SMALL
No Charge or Current Charge


@<TRIPOS>ATOM
      1 H1         16.9377   33.3962   13.7784 H       1  lig         0.0618
      2 H2         19.0655   32.7099   14.7894 H       1  lig         0.0618
      3 H3         15.4447   31.7356   12.6701 H       1  lig         0.0624
      4 H4         19.8517   30.3640   14.7423 H       1  lig         0.0638
      5 H5         13.7443   27.3255   10.8632 H       1  lig         0.0618
      6 H6         15.3132   25.4555   11.1623 H       1  lig         0.0618
      7 H7         14.3415   29.6116   11.6536 H       1  lig         0.0624
      8 H8         17.4131   25.6818   12.4343 H       1  lig         0.0638
      9 H9         22.1006   27.6649   14.4948 H       1  lig         0.0379
     10 H10        21.8639   26.1061   13.7536 H       1  lig         0.0379
     11 H11        20.4170   27.2786   11.9651 H       1  lig         0.0288
     12 H12        20.7331   28.7943   12.7804 H       1  lig         0.0288
     13 H13        19.6616   27.8042   14.8882 H       1  lig         0.0492
     14 H14        19.1244   26.4625   13.8799 H       1  lig         0.0492
     15 C1         17.2348   32.3523   13.7321 C.ar    1  lig        -0.0611
     16 C2         18.4532   31.9564   14.3026 C.ar    1  lig        -0.0598
     17 C3         16.3907   31.4268   13.1070 C.ar    1  lig        -0.0520
     18 C4         18.9039   30.6314   14.2832 C.ar    1  lig        -0.0376
     19 C5         16.8322   30.1037   13.0762 C.ar    1  lig         0.0076
     20 C6         18.1118   29.6582   13.6630 C.ar    1  lig         0.0501
     21 C7         14.6660   27.4807   11.4202 C.ar    1  lig        -0.0611
     22 C8         15.5265   26.3933   11.6452 C.ar    1  lig        -0.0598
     23 C9         15.0011   28.7732   11.8473 C.ar    1  lig        -0.0520
     24 C10        16.7531   26.5368   12.3162 C.ar    1  lig        -0.0376
     25 C11        16.2094   28.9203   12.5157 C.ar    1  lig         0.0076
     26 C12        17.1406   27.7985   12.7712 C.ar    1  lig         0.0501
     27 C13        23.1141   27.4592   12.6538 C.2     1  lig         0.3561
     28 C14        21.9202   27.1725   13.5385 C.3     1  lig         0.0508
     29 C15        20.6084   27.7207   12.9438 C.3     1  lig        -0.0247
     30 C16        19.3921   27.5233   13.8670 C.3     1  lig         0.0244
     31 N1         18.2191   28.3090   13.4540 N.pl3   1  lig        -0.3398
     32 O1         23.8593   28.5423   12.8505 O.co2   1  lig        -0.2464
     33 O2         23.4178   26.7085   11.7380 O.co2   1  lig        -0.2464
@<TRIPOS>BOND
     1    27    33    1
     2    27    32    1
     3    27    28    1
     4    28    29    1
     5     9    28    1
     6    10    28    1
     7    29    30    1
     8    11    29    1
     9    12    29    1
    10    30    31    1
    11    13    30    1
    12    14    30    1
    13    26    31    1
    14    20    31    1
    15    24    26   ar
    16    25    26   ar
    17    22    24   ar
    18     8    24    1
    19    23    25   ar
    20    19    25    1
    21    21    23   ar
    22     7    23    1
    23    21    22   ar
    24     5    21    1
    25     6    22    1
    26    19    20   ar
    27    17    19   ar
    28    18    20   ar
    29    16    18   ar
    30     4    18    1
    31    15    17   ar
    32     3    17    1
    33    15    16   ar
    34     1    15    1
    35     2    16    1
@<TRIPOS>SUBSTRUCTURE
     1 lig         1 TEMP              0 ****  ****    0 ROOT


########## Name:		ligand
########## HA_RMSDs:		4.4631
########## HA_RMSDh:		4.3910
########## HA_RMSDm:		2.4564
########## Cluster Size:	1
##########    Grid Score:          -21.559458
##########      Grid_vdw:          -23.111422
##########       Grid_es:            1.551965
##########    Int_energy:            4.843661

@<TRIPOS>MOLECULE
ligand
 33 35 1 0 0
SMALL
No Charge or Current Charge


@<TRIPOS>ATOM
      1 H1         20.4634   14.5028   22.2840 H       1  lig         0.0618
      2 H2         19.4630   12.6354   21.0460 H       1  lig         0.0618
      3 H3         19.6027   16.8279   22.0232 H       1  lig         0.0624
      4 H4         17.5840   12.9558   19.4679 H       1  lig         0.0638
      5 H5         16.8264   20.7159   20.3558 H       1  lig         0.0618
      6 H6         15.1995   20.1040   18.6159 H       1  lig         0.0618
      7 H7         18.3290   18.9897   21.3405 H       1  lig         0.0624
      8 H8         14.8129   17.7676   17.9299 H       1  lig         0.0638
      9 H9         13.0055   14.1758   20.2352 H       1  lig         0.0379
     10 H10        13.9755   15.6194   20.1343 H       1  lig         0.0379
     11 H11        14.1345   13.3024   18.0933 H       1  lig         0.0288
     12 H12        15.1080   13.3571   19.5463 H       1  lig         0.0288
     13 H13        15.1921   15.5143   17.3940 H       1  lig         0.0492
     14 H14        16.3341   14.1790   17.5294 H       1  lig         0.0492
     15 C1         19.6380   14.6979   21.6051 C.ar    1  lig        -0.0611
     16 C2         19.0674   13.6349   20.8902 C.ar    1  lig        -0.0598
     17 C3         19.1617   16.0068   21.4642 C.ar    1  lig        -0.0520
     18 C4         18.0025   13.8068   19.9983 C.ar    1  lig        -0.0376
     19 C5         18.1041   16.1914   20.5732 C.ar    1  lig         0.0076
     20 C6         17.4869   15.0933   19.8029 C.ar    1  lig         0.0501
     21 C7         16.7038   19.6711   20.0776 C.ar    1  lig        -0.0611
     22 C8         15.7267   19.3201   19.1314 C.ar    1  lig        -0.0598
     23 C9         17.5642   18.7092   20.6250 C.ar    1  lig        -0.0520
     24 C10        15.5500   17.9957   18.6951 C.ar    1  lig        -0.0376
     25 C11        17.3908   17.3979   20.2019 C.ar    1  lig         0.0076
     26 C12        16.3724   16.9909   19.2078 C.ar    1  lig         0.0501
     27 C13        12.5089   15.3950   18.5844 C.2     1  lig         0.3561
     28 C14        13.5370   14.8220   19.5356 C.3     1  lig         0.0508
     29 C15        14.6035   13.9827   18.8055 C.3     1  lig        -0.0247
     30 C16        15.6747   14.8371   18.1031 C.3     1  lig         0.0244
     31 N1         16.4858   15.6313   19.0388 N.pl3   1  lig        -0.3398
     32 O1         11.3994   14.7208   18.2985 O.co2   1  lig        -0.2464
     33 O2         12.6751   16.4839   18.0541 O.co2   1  lig        -0.2464
@<TRIPOS>BOND
     1    27    33    1
     2    27    32    1
     3    27    28    1
     4    28    29    1
     5     9    28    1
     6    10    28    1
     7    29    30    1
     8    11    29    1
     9    12    29    1
    10    30    31    1
    11    13    30    1
    12    14    30    1
    13    26    31    1
    14    20    31    1
    15    24    26   ar
    16    25    26   ar
    17    22    24   ar
    18     8    24    1
    19    23    25   ar
    20    19    25    1
    21    21    23   ar
    22     7    23    1
    23    21    22   ar
    24     5    21    1
    25     6    22    1
    26    19    20   ar
    27    17    19   ar
    28    18    20   ar
    29    16    18   ar
    30     4    18    1
    31    15    17   ar
    32     3    17    1
    33    15    16   ar
    34     1    15    1
    35     2    16    1
@<TRIPOS>SUBSTRUCTURE
     1 lig         1 TEMP              0 ****  ****    0 ROOT


########## Name:		ligand
########## HA_RMSDs:		12.9540
########## HA_RMSDh:		12.9143
########## HA_RMSDm:		11.5615
########## Cluster Size:	1
##########    Grid Score:          -21.479765
##########      Grid_vdw:          -22.260551
##########       Grid_es:            0.780787
##########    Int_energy:            2.630276

@<TRIPOS>MOLECULE
ligand
 33 35 1 0 0
SMALL
No Charge or Current Charge


@<TRIPOS>ATOM
      1 H1         27.3788   31.8181   15.2270 H       1  lig         0.0618
      2 H2         25.1279   32.5214   15.9048 H       1  lig         0.0618
      3 H3         27.7174   29.8500   13.7347 H       1  lig         0.0624
      4 H4         23.0941   31.3147   15.1758 H       1  lig         0.0638
      5 H5         26.6683   25.8111   10.8727 H       1  lig         0.0618
      6 H6         24.2797   25.2290   10.8093 H       1  lig         0.0618
      7 H7         27.4578   27.7527   12.2196 H       1  lig         0.0624
      8 H8         22.5479   26.6340   11.8607 H       1  lig         0.0638
      9 H9         19.6749   27.8361   16.0955 H       1  lig         0.0379
     10 H10        19.5928   29.4218   15.3785 H       1  lig         0.0379
     11 H11        21.7442   27.2509   14.9101 H       1  lig         0.0288
     12 H12        21.9477   28.7552   15.7805 H       1  lig         0.0288
     13 H13        21.5678   30.0670   13.7002 H       1  lig         0.0492
     14 H14        21.3805   28.5673   12.7940 H       1  lig         0.0492
     15 C1         26.5188   31.2545   14.8764 C.ar    1  lig        -0.0611
     16 C2         25.2307   31.6485   15.2667 C.ar    1  lig        -0.0598
     17 C3         26.7183   30.1501   14.0395 C.ar    1  lig        -0.0520
     18 C4         24.0751   30.9737   14.8563 C.ar    1  lig        -0.0376
     19 C5         25.5740   29.4659   13.6288 C.ar    1  lig         0.0076
     20 C6         24.2062   29.8535   14.0275 C.ar    1  lig         0.0501
     21 C7         25.9441   26.4565   11.3658 C.ar    1  lig        -0.0611
     22 C8         24.5753   26.1555   11.2700 C.ar    1  lig        -0.0598
     23 C9         26.3986   27.5373   12.1342 C.ar    1  lig        -0.0520
     24 C10        23.5939   26.9218   11.9220 C.ar    1  lig        -0.0376
     25 C11        25.4332   28.3014   12.7764 C.ar    1  lig         0.0076
     26 C12        23.9831   28.0151   12.6980 C.ar    1  lig         0.0501
     27 C13        19.1001   27.7991   14.0640 C.2     1  lig         0.3561
     28 C14        19.9132   28.3976   15.1914 C.3     1  lig         0.0508
     29 C15        21.4294   28.2951   14.9353 C.3     1  lig        -0.0247
     30 C16        21.8809   29.0209   13.6547 C.3     1  lig         0.0244
     31 N1         23.3360   28.9712   13.4444 N.pl3   1  lig        -0.3398
     32 O1         18.7882   26.5069   14.0647 O.co2   1  lig        -0.2464
     33 O2         18.7166   28.4847   13.1273 O.co2   1  lig        -0.2464
@<TRIPOS>BOND
     1    27    33    1
     2    27    32    1
     3    27    28    1
     4    28    29    1
     5     9    28    1
     6    10    28    1
     7    29    30    1
     8    11    29    1
     9    12    29    1
    10    30    31    1
    11    13    30    1
    12    14    30    1
    13    26    31    1
    14    20    31    1
    15    24    26   ar
    16    25    26   ar
    17    22    24   ar
    18     8    24    1
    19    23    25   ar
    20    19    25    1
    21    21    23   ar
    22     7    23    1
    23    21    22   ar
    24     5    21    1
    25     6    22    1
    26    19    20   ar
    27    17    19   ar
    28    18    20   ar
    29    16    18   ar
    30     4    18    1
    31    15    17   ar
    32     3    17    1
    33    15    16   ar
    34     1    15    1
    35     2    16    1
@<TRIPOS>SUBSTRUCTURE
     1 lig         1 TEMP              0 ****  ****    0 ROOT


########## Name:		ligand
########## HA_RMSDs:		14.8839
########## HA_RMSDh:		14.5297
########## HA_RMSDm:		7.8530
########## Cluster Size:	1
##########    Grid Score:          -20.952215
##########      Grid_vdw:          -20.892424
##########       Grid_es:           -0.059792
##########    Int_energy:            1.762988

@<TRIPOS>MOLECULE
ligand
 33 35 1 0 0
SMALL
No Charge or Current Charge


@<TRIPOS>ATOM
      1 H1         29.0703   14.3851   15.0319 H       1  lig         0.0618
      2 H2         30.2376   12.2729   14.5885 H       1  lig         0.0618
      3 H3         28.8773   15.2873   17.3478 H       1  lig         0.0624
      4 H4         31.2528   10.9227   16.3968 H       1  lig         0.0638
      5 H5         29.3266   15.6251   22.3767 H       1  lig         0.0618
      6 H6         30.4150   13.6780   23.4121 H       1  lig         0.0618
      7 H7         28.9699   15.7080   19.9123 H       1  lig         0.0624
      8 H8         31.3971   11.8493   22.0817 H       1  lig         0.0638
      9 H9         31.8095    7.7800   18.7651 H       1  lig         0.0379
     10 H10        32.4812    8.0417   20.3512 H       1  lig         0.0379
     11 H11        30.4400    9.6376   20.7732 H       1  lig         0.0288
     12 H12        30.0151    9.3742   19.0963 H       1  lig         0.0288
     13 H13        32.2554   10.2893   18.3859 H       1  lig         0.0492
     14 H14        32.5843   10.6836   20.0717 H       1  lig         0.0492
     15 C1         29.5008   13.8324   15.8622 C.ar    1  lig        -0.0611
     16 C2         30.1629   12.6213   15.6146 C.ar    1  lig        -0.0598
     17 C3         29.3868   14.3460   17.1595 C.ar    1  lig        -0.0520
     18 C4         30.7427   11.8531   16.6310 C.ar    1  lig        -0.0376
     19 C5         29.9558   13.5859   18.1818 C.ar    1  lig         0.0076
     20 C6         30.6538   12.3052   17.9526 C.ar    1  lig         0.0501
     21 C7         29.7310   14.8363   21.7456 C.ar    1  lig        -0.0611
     22 C8         30.4103   13.7593   22.3391 C.ar    1  lig        -0.0598
     23 C9         29.5117   14.8835   20.3618 C.ar    1  lig        -0.0520
     24 C10        30.9148   12.6864   21.5843 C.ar    1  lig        -0.0376
     25 C11        30.0126   13.8287   19.6101 C.ar    1  lig         0.0076
     26 C12        30.7333   12.6783   20.2002 C.ar    1  lig         0.0501
     27 C13        30.6376    6.9449   20.3104 C.2     1  lig         0.3561
     28 C14        31.5465    8.0381   19.7917 C.3     1  lig         0.0508
     29 C15        30.8585    9.4171   19.7902 C.3     1  lig        -0.0247
     30 C16        31.7852   10.5592   19.3348 C.3     1  lig         0.0244
     31 N1         31.0834   11.8412   19.1674 N.pl3   1  lig        -0.3398
     32 O1         29.7794    6.3346   19.4990 O.co2   1  lig        -0.2464
     33 O2         30.6664    6.6016   21.4834 O.co2   1  lig        -0.2464
@<TRIPOS>BOND
     1    27    33    1
     2    27    32    1
     3    27    28    1
     4    28    29    1
     5     9    28    1
     6    10    28    1
     7    29    30    1
     8    11    29    1
     9    12    29    1
    10    30    31    1
    11    13    30    1
    12    14    30    1
    13    26    31    1
    14    20    31    1
    15    24    26   ar
    16    25    26   ar
    17    22    24   ar
    18     8    24    1
    19    23    25   ar
    20    19    25    1
    21    21    23   ar
    22     7    23    1
    23    21    22   ar
    24     5    21    1
    25     6    22    1
    26    19    20   ar
    27    17    19   ar
    28    18    20   ar
    29    16    18   ar
    30     4    18    1
    31    15    17   ar
    32     3    17    1
    33    15    16   ar
    34     1    15    1
    35     2    16    1
@<TRIPOS>SUBSTRUCTURE
     1 lig         1 TEMP              0 ****  ****    0 ROOT


########## Name:		ligand
########## HA_RMSDs:		12.5870
########## HA_RMSDh:		12.5334
########## HA_RMSDm:		9.9318
########## Cluster Size:	1
##########    Grid Score:          -20.861883
##########      Grid_vdw:          -21.569479
##########       Grid_es:            0.707596
##########    Int_energy:            3.892570

@<TRIPOS>MOLECULE
ligand
 33 35 1 0 0
SMALL
No Charge or Current Charge


@<TRIPOS>ATOM
      1 H1         21.7204   28.1200   13.7807 H       1  lig         0.0618
      2 H2         19.4414   27.8440   14.6470 H       1  lig         0.0618
      3 H3         22.1571   28.2654   11.3306 H       1  lig         0.0624
      4 H4         17.4756   27.6694   13.1541 H       1  lig         0.0638
      5 H5         21.3160   28.3124    6.3410 H       1  lig         0.0618
      6 H6         18.9681   27.9209    5.7233 H       1  lig         0.0618
      7 H7         22.0045   28.3277    8.7354 H       1  lig         0.0624
      8 H8         17.1692   27.7555    7.4012 H       1  lig         0.0638
      9 H9         13.6462   29.5364   11.2850 H       1  lig         0.0379
     10 H10        13.7125   28.3763    9.9869 H       1  lig         0.0379
     11 H11        15.9981   28.9529   11.9941 H       1  lig         0.0288
     12 H12        15.8749   29.6614   10.3988 H       1  lig         0.0288
     13 H13        15.9886   27.3899    9.3518 H       1  lig         0.0492
     14 H14        16.1966   26.6842   10.9531 H       1  lig         0.0492
     15 C1         20.8918   28.0512   13.0816 C.ar    1  lig        -0.0611
     16 C2         19.5882   27.8866   13.5716 C.ar    1  lig        -0.0598
     17 C3         21.1463   28.1329   11.7073 C.ar    1  lig        -0.0520
     18 C4         18.4706   27.7903   12.7345 C.ar    1  lig        -0.0376
     19 C5         20.0405   28.0321   10.8627 C.ar    1  lig         0.0076
     20 C6         18.6579   27.8530   11.3489 C.ar    1  lig         0.0501
     21 C7         20.5611   28.2316    7.1205 C.ar    1  lig        -0.0611
     22 C8         19.2125   28.0746    6.7600 C.ar    1  lig        -0.0598
     23 C9         20.9596   28.2254    8.4646 C.ar    1  lig        -0.0520
     24 C10        18.1959   27.9177    7.7177 C.ar    1  lig        -0.0376
     25 C11        19.9589   28.0761    9.4157 C.ar    1  lig         0.0076
     26 C12        18.5285   27.9090    9.0735 C.ar    1  lig         0.0501
     27 C13        13.6461   27.5356   11.9598 C.2     1  lig         0.3561
     28 C14        14.1035   28.5943   10.9800 C.3     1  lig         0.0508
     29 C15        15.6347   28.7687   10.9821 C.3     1  lig        -0.0247
     30 C16        16.3836   27.5797   10.3529 C.3     1  lig         0.0244
     31 N1         17.8353   27.7970   10.2554 N.pl3   1  lig        -0.3398
     32 O1         12.4529   26.9635   11.8321 O.co2   1  lig        -0.2464
     33 O2         14.3569   27.1860   12.8911 O.co2   1  lig        -0.2464
@<TRIPOS>BOND
     1    27    33    1
     2    27    32    1
     3    27    28    1
     4    28    29    1
     5     9    28    1
     6    10    28    1
     7    29    30    1
     8    11    29    1
     9    12    29    1
    10    30    31    1
    11    13    30    1
    12    14    30    1
    13    26    31    1
    14    20    31    1
    15    24    26   ar
    16    25    26   ar
    17    22    24   ar
    18     8    24    1
    19    23    25   ar
    20    19    25    1
    21    21    23   ar
    22     7    23    1
    23    21    22   ar
    24     5    21    1
    25     6    22    1
    26    19    20   ar
    27    17    19   ar
    28    18    20   ar
    29    16    18   ar
    30     4    18    1
    31    15    17   ar
    32     3    17    1
    33    15    16   ar
    34     1    15    1
    35     2    16    1
@<TRIPOS>SUBSTRUCTURE
     1 lig         1 TEMP              0 ****  ****    0 ROOT


########## Name:		ligand
########## HA_RMSDs:		14.8550
########## HA_RMSDh:		14.4111
########## HA_RMSDm:		12.6293
########## Cluster Size:	1
##########    Grid Score:          -20.680336
##########      Grid_vdw:          -20.043627
##########       Grid_es:           -0.636710
##########    Int_energy:            2.594659

@<TRIPOS>MOLECULE
ligand
 33 35 1 0 0
SMALL
No Charge or Current Charge


@<TRIPOS>ATOM
      1 H1         25.7442   28.4154    5.6039 H       1  lig         0.0618
      2 H2         24.0248   26.8332    6.3528 H       1  lig         0.0618
      3 H3         27.5895   29.1249    7.1226 H       1  lig         0.0624
      4 H4         24.0111   25.8855    8.6387 H       1  lig         0.0638
      5 H5         30.4364   29.5306   11.2861 H       1  lig         0.0618
      6 H6         29.5603   28.2845   13.2168 H       1  lig         0.0618
      7 H7         29.2181   29.5091    9.1130 H       1  lig         0.0624
      8 H8         27.6024   26.7952   13.0515 H       1  lig         0.0638
      9 H9         23.3387   27.8019   10.9998 H       1  lig         0.0379
     10 H10        22.5120   26.2893   11.2526 H       1  lig         0.0379
     11 H11        24.1713   25.8949   13.2431 H       1  lig         0.0288
     12 H12        24.9663   27.3731   12.7482 H       1  lig         0.0288
     13 H13        24.6295   25.1601   10.7138 H       1  lig         0.0492
     14 H14        25.9153   25.0687   11.9153 H       1  lig         0.0492
     15 C1         25.7860   28.0271    6.6176 C.ar    1  lig        -0.0611
     16 C2         24.8017   27.1278    7.0524 C.ar    1  lig        -0.0598
     17 C3         26.8252   28.4316    7.4639 C.ar    1  lig        -0.0520
     18 C4         24.7883   26.5846    8.3423 C.ar    1  lig        -0.0376
     19 C5         26.8190   27.9012    8.7542 C.ar    1  lig         0.0076
     20 C6         25.7936   26.9575    9.2420 C.ar    1  lig         0.0501
     21 C7         29.5594   28.8980   11.1649 C.ar    1  lig        -0.0611
     22 C8         29.1030   28.1369   12.2538 C.ar    1  lig        -0.0598
     23 C9         28.8714   28.9045    9.9435 C.ar    1  lig        -0.0520
     24 C10        27.9501   27.3368   12.1760 C.ar    1  lig        -0.0376
     25 C11        27.7346   28.1116    9.8587 C.ar    1  lig         0.0076
     26 C12        27.2244   27.2965   10.9841 C.ar    1  lig         0.0501
     27 C13        22.2123   27.7605   12.7854 C.2     1  lig         0.3561
     28 C14        23.0831   27.0646   11.7619 C.3     1  lig         0.0508
     29 C15        24.3878   26.5228   12.3778 C.3     1  lig        -0.0247
     30 C16        25.2660   25.7596   11.3693 C.3     1  lig         0.0244
     31 N1         26.0977   26.6456   10.5403 N.pl3   1  lig        -0.3398
     32 O1         22.3118   29.0717   12.9812 O.co2   1  lig        -0.2464
     33 O2         21.4039   27.1365   13.4574 O.co2   1  lig        -0.2464
@<TRIPOS>BOND
     1    27    33    1
     2    27    32    1
     3    27    28    1
     4    28    29    1
     5     9    28    1
     6    10    28    1
     7    29    30    1
     8    11    29    1
     9    12    29    1
    10    30    31    1
    11    13    30    1
    12    14    30    1
    13    26    31    1
    14    20    31    1
    15    24    26   ar
    16    25    26   ar
    17    22    24   ar
    18     8    24    1
    19    23    25   ar
    20    19    25    1
    21    21    23   ar
    22     7    23    1
    23    21    22   ar
    24     5    21    1
    25     6    22    1
    26    19    20   ar
    27    17    19   ar
    28    18    20   ar
    29    16    18   ar
    30     4    18    1
    31    15    17   ar
    32     3    17    1
    33    15    16   ar
    34     1    15    1
    35     2    16    1
@<TRIPOS>SUBSTRUCTURE
     1 lig         1 TEMP              0 ****  ****    0 ROOT


########## Name:		ligand
########## HA_RMSDs:		14.2059
########## HA_RMSDh:		14.0979
########## HA_RMSDm:		11.4112
########## Cluster Size:	1
##########    Grid Score:          -20.667179
##########      Grid_vdw:          -20.058699
##########       Grid_es:           -0.608479
##########    Int_energy:            3.597253

@<TRIPOS>MOLECULE
ligand
 33 35 1 0 0
SMALL
No Charge or Current Charge


@<TRIPOS>ATOM
      1 H1         23.5795   30.7134   16.3440 H       1  lig         0.0618
      2 H2         25.9000   30.7524   15.5478 H       1  lig         0.0618
      3 H3         21.7494   29.7815   14.9307 H       1  lig         0.0624
      4 H4         26.5418   29.9040   13.3135 H       1  lig         0.0638
      5 H5         19.3826   27.7068   10.9686 H       1  lig         0.0618
      6 H6         20.8498   27.2874    9.0400 H       1  lig         0.0618
      7 H7         20.2944   28.7344   13.0470 H       1  lig         0.0624
      8 H8         23.2886   27.6370    9.1332 H       1  lig         0.0638
      9 H9         27.6904   27.6769   12.2054 H       1  lig         0.0379
     10 H10        26.3426   26.7234   12.7616 H       1  lig         0.0379
     11 H11        25.4891   26.5552   10.4006 H       1  lig         0.0288
     12 H12        26.9875   27.2338    9.8039 H       1  lig         0.0288
     13 H13        25.4474   29.0305    9.6783 H       1  lig         0.0492
     14 H14        26.4661   29.3790   11.0734 H       1  lig         0.0492
     15 C1         23.8077   30.3258   15.3552 C.ar    1  lig        -0.0611
     16 C2         25.1314   30.3521   14.8930 C.ar    1  lig        -0.0598
     17 C3         22.7736   29.8052   14.5680 C.ar    1  lig        -0.0520
     18 C4         25.5035   29.8714   13.6322 C.ar    1  lig        -0.0376
     19 C5         23.1316   29.3284   13.3066 C.ar    1  lig         0.0076
     20 C6         24.5149   29.3482   12.7908 C.ar    1  lig         0.0501
     21 C7         20.4514   27.8916   11.0557 C.ar    1  lig        -0.0611
     22 C8         21.2936   27.5874    9.9734 C.ar    1  lig        -0.0598
     23 C9         20.9530   28.4845   12.2228 C.ar    1  lig        -0.0520
     24 C10        22.6748   27.8456   10.0052 C.ar    1  lig        -0.0376
     25 C11        22.3179   28.7371   12.2623 C.ar    1  lig         0.0076
     26 C12        23.2357   28.4298   11.1424 C.ar    1  lig         0.0501
     27 C13        27.8684   25.6288   11.7237 C.2     1  lig         0.3561
     28 C14        27.0192   26.8660   11.9200 C.3     1  lig         0.0508
     29 C15        26.2763   27.2738   10.6329 C.3     1  lig        -0.0247
     30 C16        25.6989   28.7001   10.6892 C.3     1  lig         0.0244
     31 N1         24.4990   28.8051   11.5337 N.pl3   1  lig        -0.3398
     32 O1         28.3459   24.9611   12.7694 O.co2   1  lig        -0.2464
     33 O2         28.1391   25.2182   10.6045 O.co2   1  lig        -0.2464
@<TRIPOS>BOND
     1    27    33    1
     2    27    32    1
     3    27    28    1
     4    28    29    1
     5     9    28    1
     6    10    28    1
     7    29    30    1
     8    11    29    1
     9    12    29    1
    10    30    31    1
    11    13    30    1
    12    14    30    1
    13    26    31    1
    14    20    31    1
    15    24    26   ar
    16    25    26   ar
    17    22    24   ar
    18     8    24    1
    19    23    25   ar
    20    19    25    1
    21    21    23   ar
    22     7    23    1
    23    21    22   ar
    24     5    21    1
    25     6    22    1
    26    19    20   ar
    27    17    19   ar
    28    18    20   ar
    29    16    18   ar
    30     4    18    1
    31    15    17   ar
    32     3    17    1
    33    15    16   ar
    34     1    15    1
    35     2    16    1
@<TRIPOS>SUBSTRUCTURE
     1 lig         1 TEMP              0 ****  ****    0 ROOT


########## Name:		ligand
########## HA_RMSDs:		15.2120
########## HA_RMSDh:		14.7837
########## HA_RMSDm:		10.1842
########## Cluster Size:	1
##########    Grid Score:          -20.555349
##########      Grid_vdw:          -20.442171
##########       Grid_es:           -0.113179
##########    Int_energy:            1.655471

@<TRIPOS>MOLECULE
ligand
 33 35 1 0 0
SMALL
No Charge or Current Charge


@<TRIPOS>ATOM
      1 H1         20.5305   27.5375   12.7287 H       1  lig         0.0618
      2 H2         20.2041   28.8357   10.6724 H       1  lig         0.0618
      3 H3         22.7076   26.4252   13.2166 H       1  lig         0.0624
      4 H4         21.9873   29.0879    8.9753 H       1  lig         0.0638
      5 H5         27.4804   24.8469   12.6387 H       1  lig         0.0618
      6 H6         28.4868   25.4855   10.4876 H       1  lig         0.0618
      7 H7         25.1331   25.4889   13.1729 H       1  lig         0.0624
      8 H8         27.3394   26.9565    8.8756 H       1  lig         0.0638
      9 H9         24.0744   29.0351    5.4682 H       1  lig         0.0379
     10 H10        25.6853   28.3820    5.3511 H       1  lig         0.0379
     11 H11        24.9854   26.5455    7.0033 H       1  lig         0.0288
     12 H12        23.3696   27.2171    7.0043 H       1  lig         0.0288
     13 H13        24.1626   29.3270    8.0067 H       1  lig         0.0492
     14 H14        25.8235   28.7389    7.9723 H       1  lig         0.0492
     15 C1         21.3475   27.6189   12.0174 C.ar    1  lig        -0.0611
     16 C2         21.1635   28.3541   10.8374 C.ar    1  lig        -0.0598
     17 C3         22.5663   26.9902   12.2990 C.ar    1  lig        -0.0520
     18 C4         22.1677   28.5045    9.8740 C.ar    1  lig        -0.0376
     19 C5         23.5730   27.1282   11.3430 C.ar    1  lig         0.0076
     20 C6         23.4070   27.8908   10.0897 C.ar    1  lig         0.0501
     21 C7         26.9263   25.4863   11.9544 C.ar    1  lig        -0.0611
     22 C8         27.5320   25.9023   10.7571 C.ar    1  lig        -0.0598
     23 C9         25.6010   25.8293   12.2560 C.ar    1  lig        -0.0520
     24 C10        26.8540   26.6893    9.8104 C.ar    1  lig        -0.0376
     25 C11        24.9276   26.6113   11.3268 C.ar    1  lig         0.0076
     26 C12        25.5331   27.0686   10.0558 C.ar    1  lig         0.0501
     27 C13        24.1552   27.2122    4.4056 C.2     1  lig         0.3561
     28 C14        24.6453   28.1074    5.5231 C.3     1  lig         0.0508
     29 C15        24.4270   27.4782    6.9129 C.3     1  lig        -0.0247
     30 C16        24.7795   28.4273    8.0729 C.3     1  lig         0.0244
     31 N1         24.5866   27.8177    9.3977 N.pl3   1  lig        -0.3398
     32 O1         22.9130   27.3208    3.9450 O.co2   1  lig        -0.2464
     33 O2         24.8843   26.3680    3.9053 O.co2   1  lig        -0.2464
@<TRIPOS>BOND
     1    27    33    1
     2    27    32    1
     3    27    28    1
     4    28    29    1
     5     9    28    1
     6    10    28    1
     7    29    30    1
     8    11    29    1
     9    12    29    1
    10    30    31    1
    11    13    30    1
    12    14    30    1
    13    26    31    1
    14    20    31    1
    15    24    26   ar
    16    25    26   ar
    17    22    24   ar
    18     8    24    1
    19    23    25   ar
    20    19    25    1
    21    21    23   ar
    22     7    23    1
    23    21    22   ar
    24     5    21    1
    25     6    22    1
    26    19    20   ar
    27    17    19   ar
    28    18    20   ar
    29    16    18   ar
    30     4    18    1
    31    15    17   ar
    32     3    17    1
    33    15    16   ar
    34     1    15    1
    35     2    16    1
@<TRIPOS>SUBSTRUCTURE
     1 lig         1 TEMP              0 ****  ****    0 ROOT


########## Name:		ligand
########## HA_RMSDs:		13.6323
########## HA_RMSDh:		13.1757
########## HA_RMSDm:		10.5502
########## Cluster Size:	1
##########    Grid Score:          -20.540743
##########      Grid_vdw:          -20.669807
##########       Grid_es:            0.129065
##########    Int_energy:            3.599007

@<TRIPOS>MOLECULE
ligand
 33 35 1 0 0
SMALL
No Charge or Current Charge


@<TRIPOS>ATOM
      1 H1         15.7302   30.7133   11.6620 H       1  lig         0.0618
      2 H2         16.2640   28.3239   11.5012 H       1  lig         0.0618
      3 H3         17.0176   32.2208   13.1736 H       1  lig         0.0624
      4 H4         18.0708   27.2839   12.8345 H       1  lig         0.0638
      5 H5         20.4043   33.7587   16.6043 H       1  lig         0.0618
      6 H6         21.7697   31.9401   17.5404 H       1  lig         0.0618
      7 H7         18.6513   33.2719   14.9022 H       1  lig         0.0624
      8 H8         21.6433   29.6251   16.7014 H       1  lig         0.0638
      9 H9         21.6765   29.0430   13.0170 H       1  lig         0.0379
     10 H10        22.8496   28.3834   14.1234 H       1  lig         0.0379
     11 H11        21.5682   26.1414   13.9922 H       1  lig         0.0288
     12 H12        20.4515   26.9103   12.8860 H       1  lig         0.0288
     13 H13        20.8261   27.6238   15.8214 H       1  lig         0.0492
     14 H14        19.4199   26.8729   15.0703 H       1  lig         0.0492
     15 C1         16.5354   30.3077   12.2679 C.ar    1  lig        -0.0611
     16 C2         16.8398   28.9413   12.1845 C.ar    1  lig        -0.0598
     17 C3         17.2525   31.1613   13.1147 C.ar    1  lig        -0.0520
     18 C4         17.8620   28.3457   12.9325 C.ar    1  lig        -0.0376
     19 C5         18.2701   30.5777   13.8699 C.ar    1  lig         0.0076
     20 C6         18.6098   29.1422   13.8075 C.ar    1  lig         0.0501
     21 C7         20.3002   32.7501   16.2095 C.ar    1  lig        -0.0611
     22 C8         21.1296   31.7286   16.7015 C.ar    1  lig        -0.0598
     23 C9         19.3007   32.4825   15.2637 C.ar    1  lig        -0.0520
     24 C10        21.0135   30.3969   16.2672 C.ar    1  lig        -0.0376
     25 C11        19.1848   31.1696   14.8266 C.ar    1  lig         0.0076
     26 C12        20.0406   30.0679   15.3217 C.ar    1  lig         0.0501
     27 C13        22.9731   27.6426   12.1135 C.2     1  lig         0.3561
     28 C14        22.1764   28.1186   13.3088 C.3     1  lig         0.0508
     29 C15        21.1064   27.0972   13.7409 C.3     1  lig        -0.0247
     30 C16        20.2295   27.5905   14.9065 C.3     1  lig         0.0244
     31 N1         19.6498   28.9218   14.6707 N.pl3   1  lig        -0.3398
     32 O1         22.6027   27.9674   10.8788 O.co2   1  lig        -0.2464
     33 O2         23.9687   26.9470   12.2530 O.co2   1  lig        -0.2464
@<TRIPOS>BOND
     1    27    33    1
     2    27    32    1
     3    27    28    1
     4    28    29    1
     5     9    28    1
     6    10    28    1
     7    29    30    1
     8    11    29    1
     9    12    29    1
    10    30    31    1
    11    13    30    1
    12    14    30    1
    13    26    31    1
    14    20    31    1
    15    24    26   ar
    16    25    26   ar
    17    22    24   ar
    18     8    24    1
    19    23    25   ar
    20    19    25    1
    21    21    23   ar
    22     7    23    1
    23    21    22   ar
    24     5    21    1
    25     6    22    1
    26    19    20   ar
    27    17    19   ar
    28    18    20   ar
    29    16    18   ar
    30     4    18    1
    31    15    17   ar
    32     3    17    1
    33    15    16   ar
    34     1    15    1
    35     2    16    1
@<TRIPOS>SUBSTRUCTURE
     1 lig         1 TEMP              0 ****  ****    0 ROOT


########## Name:		ligand
########## HA_RMSDs:		15.0848
########## HA_RMSDh:		14.8544
########## HA_RMSDm:		10.5246
########## Cluster Size:	3
##########    Grid Score:          -20.344013
##########      Grid_vdw:          -20.426910
##########       Grid_es:            0.082897
##########    Int_energy:            2.179155

@<TRIPOS>MOLECULE
ligand
 33 35 1 0 0
SMALL
No Charge or Current Charge


@<TRIPOS>ATOM
      1 H1         11.0262   24.7851    2.9898 H       1  lig         0.0618
      2 H2         13.3184   25.5155    3.4722 H       1  lig         0.0618
      3 H3         10.1800   22.5839    3.7981 H       1  lig         0.0624
      4 H4         14.9078   24.1134    4.7496 H       1  lig         0.0638
      5 H5         10.1073   18.0362    6.0158 H       1  lig         0.0618
      6 H6         12.2701   17.3594    6.9708 H       1  lig         0.0618
      7 H7          9.8718   20.2280    4.8549 H       1  lig         0.0624
      8 H8         14.2178   18.8697    7.0354 H       1  lig         0.0638
      9 H9         18.0842   22.3309    5.7812 H       1  lig         0.0379
     10 H10        18.2092   20.6822    6.3305 H       1  lig         0.0379
     11 H11        16.2695   20.0837    4.7607 H       1  lig         0.0288
     12 H12        16.2637   21.7405    4.1979 H       1  lig         0.0288
     13 H13        15.7086   22.5365    6.5188 H       1  lig         0.0492
     14 H14        15.5919   20.8548    7.0324 H       1  lig         0.0492
     15 C1         11.6829   24.1317    3.5573 C.ar    1  lig        -0.0611
     16 C2         12.9960   24.5419    3.8297 C.ar    1  lig        -0.0598
     17 C3         11.1996   22.8970    4.0065 C.ar    1  lig        -0.0520
     18 C4         13.9002   23.7566    4.5541 C.ar    1  lig        -0.0376
     19 C5         12.0939   22.1028    4.7247 C.ar    1  lig         0.0076
     20 C6         13.4831   22.5052    5.0220 C.ar    1  lig         0.0501
     21 C7         10.9416   18.7347    6.0063 C.ar    1  lig        -0.0611
     22 C8         12.1545   18.3675    6.6124 C.ar    1  lig        -0.0598
     23 C9         10.8048   19.9589    5.3372 C.ar    1  lig        -0.0520
     24 C10        13.2833   19.2047    6.5936 C.ar    1  lig        -0.0376
     25 C11        11.9150   20.7928    5.3199 C.ar    1  lig         0.0076
     26 C12        13.2083   20.4400    5.9477 C.ar    1  lig         0.0501
     27 C13        18.8786   21.0282    4.3215 C.2     1  lig         0.3561
     28 C14        17.9339   21.2955    5.4732 C.3     1  lig         0.0508
     29 C15        16.4574   21.1124    5.0712 C.3     1  lig        -0.0247
     30 C16        15.4695   21.5263    6.1773 C.3     1  lig         0.0244
     31 N1         14.0654   21.4946    5.7398 N.pl3   1  lig        -0.3398
     32 O1         20.0464   21.6584    4.2422 O.co2   1  lig        -0.2464
     33 O2         18.5902   20.2344    3.4378 O.co2   1  lig        -0.2464
@<TRIPOS>BOND
     1    27    33    1
     2    27    32    1
     3    27    28    1
     4    28    29    1
     5     9    28    1
     6    10    28    1
     7    29    30    1
     8    11    29    1
     9    12    29    1
    10    30    31    1
    11    13    30    1
    12    14    30    1
    13    26    31    1
    14    20    31    1
    15    24    26   ar
    16    25    26   ar
    17    22    24   ar
    18     8    24    1
    19    23    25   ar
    20    19    25    1
    21    21    23   ar
    22     7    23    1
    23    21    22   ar
    24     5    21    1
    25     6    22    1
    26    19    20   ar
    27    17    19   ar
    28    18    20   ar
    29    16    18   ar
    30     4    18    1
    31    15    17   ar
    32     3    17    1
    33    15    16   ar
    34     1    15    1
    35     2    16    1
@<TRIPOS>SUBSTRUCTURE
     1 lig         1 TEMP              0 ****  ****    0 ROOT


########## Name:		ligand
########## HA_RMSDs:		12.8010
########## HA_RMSDh:		12.6920
########## HA_RMSDm:		10.3990
########## Cluster Size:	1
##########    Grid Score:          -20.206108
##########      Grid_vdw:          -19.859844
##########       Grid_es:           -0.346263
##########    Int_energy:            2.666200

@<TRIPOS>MOLECULE
ligand
 33 35 1 0 0
SMALL
No Charge or Current Charge


@<TRIPOS>ATOM
      1 H1         25.7530   28.3975   12.1268 H       1  lig         0.0618
      2 H2         24.2369   26.5313   11.6374 H       1  lig         0.0618
      3 H3         25.0804   30.2291   13.6784 H       1  lig         0.0624
      4 H4         21.9724   26.3788   12.6236 H       1  lig         0.0638
      5 H5         22.2526   32.9949   16.8343 H       1  lig         0.0618
      6 H6         19.9784   32.1181   17.1614 H       1  lig         0.0618
      7 H7         23.8482   31.8277   15.3180 H       1  lig         0.0624
      8 H8         19.2424   29.9643   16.2136 H       1  lig         0.0638
      9 H9         17.5218   29.1033   14.0879 H       1  lig         0.0379
     10 H10        18.7928   30.0320   13.3413 H       1  lig         0.0379
     11 H11        19.6038   27.8450   12.2266 H       1  lig         0.0288
     12 H12        18.2869   27.0159   13.0269 H       1  lig         0.0288
     13 H13        20.1792   26.5553   14.3812 H       1  lig         0.0492
     14 H14        19.2398   27.7548   15.2668 H       1  lig         0.0492
     15 C1         24.7699   28.3775   12.5886 C.ar    1  lig        -0.0611
     16 C2         23.8973   27.3165   12.3067 C.ar    1  lig        -0.0598
     17 C3         24.4002   29.4107   13.4579 C.ar    1  lig        -0.0520
     18 C4         22.6163   27.2208   12.8626 C.ar    1  lig        -0.0376
     19 C5         23.1231   29.3292   14.0136 C.ar    1  lig         0.0076
     20 C6         22.1808   28.2281   13.7313 C.ar    1  lig         0.0501
     21 C7         21.9718   32.0459   16.3819 C.ar    1  lig        -0.0611
     22 C8         20.6935   31.5174   16.6267 C.ar    1  lig        -0.0598
     23 C9         22.8702   31.4045   15.5178 C.ar    1  lig        -0.0520
     24 C10        20.2533   30.3208   16.0353 C.ar    1  lig        -0.0376
     25 C11        22.4430   30.2188   14.9347 C.ar    1  lig         0.0076
     26 C12        21.1045   29.6319   15.1695 C.ar    1  lig         0.0501
     27 C13        17.2633   29.3393   12.0056 C.2     1  lig         0.3561
     28 C14        18.1638   29.1528   13.2075 C.3     1  lig         0.0508
     29 C15        18.9849   27.8513   13.1249 C.3     1  lig        -0.0247
     30 C16        19.8506   27.5975   14.3727 C.3     1  lig         0.0244
     31 N1         21.0347   28.4677   14.4417 N.pl3   1  lig        -0.3398
     32 O1         16.0212   28.8655   12.0088 O.co2   1  lig        -0.2464
     33 O2         17.6557   29.9224   11.0053 O.co2   1  lig        -0.2464
@<TRIPOS>BOND
     1    27    33    1
     2    27    32    1
     3    27    28    1
     4    28    29    1
     5     9    28    1
     6    10    28    1
     7    29    30    1
     8    11    29    1
     9    12    29    1
    10    30    31    1
    11    13    30    1
    12    14    30    1
    13    26    31    1
    14    20    31    1
    15    24    26   ar
    16    25    26   ar
    17    22    24   ar
    18     8    24    1
    19    23    25   ar
    20    19    25    1
    21    21    23   ar
    22     7    23    1
    23    21    22   ar
    24     5    21    1
    25     6    22    1
    26    19    20   ar
    27    17    19   ar
    28    18    20   ar
    29    16    18   ar
    30     4    18    1
    31    15    17   ar
    32     3    17    1
    33    15    16   ar
    34     1    15    1
    35     2    16    1
@<TRIPOS>SUBSTRUCTURE
     1 lig         1 TEMP              0 ****  ****    0 ROOT


########## Name:		ligand
########## HA_RMSDs:		13.5935
########## HA_RMSDh:		13.4734
########## HA_RMSDm:		10.2704
########## Cluster Size:	1
##########    Grid Score:          -20.036467
##########      Grid_vdw:          -20.154007
##########       Grid_es:            0.117540
##########    Int_energy:            2.646173

@<TRIPOS>MOLECULE
ligand
 33 35 1 0 0
SMALL
No Charge or Current Charge


@<TRIPOS>ATOM
      1 H1         19.9316   29.5252   15.5110 H       1  lig         0.0618
      2 H2         22.0300   30.0079   14.3346 H       1  lig         0.0618
      3 H3         17.9889   28.5180   14.3167 H       1  lig         0.0624
      4 H4         22.3227   29.5526   11.9199 H       1  lig         0.0638
      5 H5         15.1665   26.6317   10.5642 H       1  lig         0.0618
      6 H6         16.2698   26.6811    8.3668 H       1  lig         0.0618
      7 H7         16.3336   27.5127   12.5814 H       1  lig         0.0624
      8 H8         18.6188   27.3739    8.0818 H       1  lig         0.0638
      9 H9         22.8422   27.3985    7.3910 H       1  lig         0.0379
     10 H10        23.6645   28.7413    8.1367 H       1  lig         0.0379
     11 H11        22.8304   27.7630   10.4281 H       1  lig         0.0288
     12 H12        21.9333   26.5932    9.4853 H       1  lig         0.0288
     13 H13        20.6659   28.4355    8.3575 H       1  lig         0.0492
     14 H14        21.5086   29.6065    9.3695 H       1  lig         0.0492
     15 C1         20.0083   29.3035   14.4503 C.ar    1  lig        -0.0611
     16 C2         21.2033   29.5839   13.7721 C.ar    1  lig        -0.0598
     17 C3         18.9121   28.7388   13.7874 C.ar    1  lig        -0.0520
     18 C4         21.3783   29.3266   12.4074 C.ar    1  lig        -0.0376
     19 C5         19.0728   28.4833   12.4253 C.ar    1  lig         0.0076
     20 C6         20.3161   28.7728   11.6835 C.ar    1  lig         0.0501
     21 C7         16.2011   26.9604   10.4891 C.ar    1  lig        -0.0611
     22 C8         16.8470   26.9235    9.2422 C.ar    1  lig        -0.0598
     23 C9         16.8443   27.4692   11.6260 C.ar    1  lig        -0.0520
     24 C10        18.1659   27.3775    9.0696 C.ar    1  lig        -0.0376
     25 C11        18.1495   27.9143   11.4629 C.ar    1  lig         0.0076
     26 C12        18.8620   27.8903   10.1656 C.ar    1  lig         0.0501
     27 C13        24.5364   26.8165    8.5089 C.2     1  lig         0.3561
     28 C14        23.3366   27.7170    8.3096 C.3     1  lig         0.0508
     29 C15        22.3291   27.6120    9.4710 C.3     1  lig        -0.0247
     30 C16        21.1379   28.5777    9.3328 C.3     1  lig         0.0244
     31 N1         20.1220   28.3964   10.3811 N.pl3   1  lig        -0.3398
     32 O1         25.7100   27.1198    7.9631 O.co2   1  lig        -0.2464
     33 O2         24.4550   25.7906    9.1688 O.co2   1  lig        -0.2464
@<TRIPOS>BOND
     1    27    33    1
     2    27    32    1
     3    27    28    1
     4    28    29    1
     5     9    28    1
     6    10    28    1
     7    29    30    1
     8    11    29    1
     9    12    29    1
    10    30    31    1
    11    13    30    1
    12    14    30    1
    13    26    31    1
    14    20    31    1
    15    24    26   ar
    16    25    26   ar
    17    22    24   ar
    18     8    24    1
    19    23    25   ar
    20    19    25    1
    21    21    23   ar
    22     7    23    1
    23    21    22   ar
    24     5    21    1
    25     6    22    1
    26    19    20   ar
    27    17    19   ar
    28    18    20   ar
    29    16    18   ar
    30     4    18    1
    31    15    17   ar
    32     3    17    1
    33    15    16   ar
    34     1    15    1
    35     2    16    1
@<TRIPOS>SUBSTRUCTURE
     1 lig         1 TEMP              0 ****  ****    0 ROOT


########## Name:		ligand
########## HA_RMSDs:		15.1575
########## HA_RMSDh:		14.6324
########## HA_RMSDm:		13.1329
########## Cluster Size:	1
##########    Grid Score:          -19.880291
##########      Grid_vdw:          -19.806356
##########       Grid_es:           -0.073934
##########    Int_energy:            3.098298

@<TRIPOS>MOLECULE
ligand
 33 35 1 0 0
SMALL
No Charge or Current Charge


@<TRIPOS>ATOM
      1 H1         12.1815    2.1365   18.3723 H       1  lig         0.0618
      2 H2         12.8893    3.3883   16.3842 H       1  lig         0.0618
      3 H3         13.7250    1.8057   20.3019 H       1  lig         0.0624
      4 H4         15.1565    4.3576   16.1744 H       1  lig         0.0638
      5 H5         17.9132    2.0046   23.1346 H       1  lig         0.0618
      6 H6         19.8141    3.1023   22.0258 H       1  lig         0.0618
      7 H7         15.7324    1.7631   21.9542 H       1  lig         0.0624
      8 H8         19.6081    4.2026   19.8290 H       1  lig         0.0638
      9 H9         17.7172    7.1871   15.8196 H       1  lig         0.0379
     10 H10        18.7921    8.1252   16.8195 H       1  lig         0.0379
     11 H11        17.1799    6.6519   18.1608 H       1  lig         0.0288
     12 H12        18.8620    6.3004   18.4908 H       1  lig         0.0288
     13 H13        18.8668    4.2745   17.2706 H       1  lig         0.0492
     14 H14        17.4047    4.6945   16.3810 H       1  lig         0.0492
     15 C1         13.1878    2.5438   18.3322 C.ar    1  lig        -0.0611
     16 C2         13.5992    3.2542   17.1952 C.ar    1  lig        -0.0598
     17 C3         14.0482    2.3525   19.4199 C.ar    1  lig        -0.0520
     18 C4         14.8784    3.8084   17.0698 C.ar    1  lig        -0.0376
     19 C5         15.3281    2.8954   19.3039 C.ar    1  lig         0.0076
     20 C6         15.7913    3.6428   18.1178 C.ar    1  lig         0.0501
     21 C7         17.7744    2.4628   22.1575 C.ar    1  lig        -0.0611
     22 C8         18.8457    3.1461   21.5585 C.ar    1  lig        -0.0598
     23 C9         16.5491    2.3082   21.4942 C.ar    1  lig        -0.0520
     24 C10        18.7453    3.7188   20.2789 C.ar    1  lig        -0.0376
     25 C11        16.4421    2.8767   20.2318 C.ar    1  lig         0.0076
     26 C12        17.5484    3.6038   19.5697 C.ar    1  lig         0.0501
     27 C13        19.7086    6.4862   15.7816 C.2     1  lig         0.3561
     28 C14        18.5451    7.1059   16.5249 C.3     1  lig         0.0508
     29 C15        18.0902    6.2443   17.7189 C.3     1  lig        -0.0247
     30 C16        17.8919    4.7606   17.3584 C.3     1  lig         0.0244
     31 N1         17.0853    4.0283   18.3468 N.pl3   1  lig        -0.3398
     32 O1         19.7027    6.4110   14.4544 O.co2   1  lig        -0.2464
     33 O2         20.6751    6.0372   16.3806 O.co2   1  lig        -0.2464
@<TRIPOS>BOND
     1    27    33    1
     2    27    32    1
     3    27    28    1
     4    28    29    1
     5     9    28    1
     6    10    28    1
     7    29    30    1
     8    11    29    1
     9    12    29    1
    10    30    31    1
    11    13    30    1
    12    14    30    1
    13    26    31    1
    14    20    31    1
    15    24    26   ar
    16    25    26   ar
    17    22    24   ar
    18     8    24    1
    19    23    25   ar
    20    19    25    1
    21    21    23   ar
    22     7    23    1
    23    21    22   ar
    24     5    21    1
    25     6    22    1
    26    19    20   ar
    27    17    19   ar
    28    18    20   ar
    29    16    18   ar
    30     4    18    1
    31    15    17   ar
    32     3    17    1
    33    15    16   ar
    34     1    15    1
    35     2    16    1
@<TRIPOS>SUBSTRUCTURE
     1 lig         1 TEMP              0 ****  ****    0 ROOT


########## Name:		ligand
########## HA_RMSDs:		13.2041
########## HA_RMSDh:		13.1701
########## HA_RMSDm:		11.4052
########## Cluster Size:	1
##########    Grid Score:          -19.789955
##########      Grid_vdw:          -19.462807
##########       Grid_es:           -0.327149
##########    Int_energy:            4.682378

@<TRIPOS>MOLECULE
ligand
 33 35 1 0 0
SMALL
No Charge or Current Charge


@<TRIPOS>ATOM
      1 H1         20.7184   33.2442   17.0236 H       1  lig         0.0618
      2 H2         22.3328   31.4733   17.5511 H       1  lig         0.0618
      3 H3         18.8682   32.8566   15.3984 H       1  lig         0.0624
      4 H4         22.2320   29.2391   16.4919 H       1  lig         0.0638
      5 H5         15.9258   30.5288   12.0031 H       1  lig         0.0618
      6 H6         16.6811   28.2626   11.4183 H       1  lig         0.0618
      7 H7         17.2040   31.8999   13.6443 H       1  lig         0.0624
      8 H8         18.5649   27.1596   12.5644 H       1  lig         0.0638
      9 H9         22.9107   28.8599   14.1180 H       1  lig         0.0379
     10 H10        23.8814   27.8464   13.0856 H       1  lig         0.0379
     11 H11        22.2061   26.2227   13.2518 H       1  lig         0.0288
     12 H12        21.1394   27.3232   12.4074 H       1  lig         0.0288
     13 H13        21.5170   27.3465   15.4324 H       1  lig         0.0492
     14 H14        20.1943   26.5473   14.5854 H       1  lig         0.0492
     15 C1         20.6275   32.2798   16.5319 C.ar    1  lig        -0.0611
     16 C2         21.5518   31.2667   16.8251 C.ar    1  lig        -0.0598
     17 C3         19.5860   32.0712   15.6200 C.ar    1  lig        -0.0520
     18 C4         21.5001   29.9994   16.2331 C.ar    1  lig        -0.0376
     19 C5         19.5278   30.8136   15.0189 C.ar    1  lig         0.0076
     20 C6         20.4894   29.7298   15.3031 C.ar    1  lig         0.0501
     21 C7         16.7727   30.0919   12.5283 C.ar    1  lig        -0.0611
     22 C8         17.1580   28.7727   12.2371 C.ar    1  lig        -0.0598
     23 C9         17.4953   30.8760   13.4384 C.ar    1  lig        -0.0520
     24 C10        18.2706   28.1671   12.8460 C.ar    1  lig        -0.0376
     25 C11        18.5925   30.2812   14.0473 C.ar    1  lig         0.0076
     26 C12        19.0276   28.8947   13.7659 C.ar    1  lig         0.0501
     27 C13        22.6457   29.2723   12.0641 C.2     1  lig         0.3561
     28 C14        22.8917   28.2897   13.1884 C.3     1  lig         0.0508
     29 C15        21.7804   27.2265   13.2875 C.3     1  lig        -0.0247
     30 C16        20.8935   27.3874   14.5357 C.3     1  lig         0.0244
     31 N1         20.1322   28.6461   14.5457 N.pl3   1  lig        -0.3398
     32 O1         21.9956   30.4101   12.2880 O.co2   1  lig        -0.2464
     33 O2         23.0322   29.0428   10.9273 O.co2   1  lig        -0.2464
@<TRIPOS>BOND
     1    27    33    1
     2    27    32    1
     3    27    28    1
     4    28    29    1
     5     9    28    1
     6    10    28    1
     7    29    30    1
     8    11    29    1
     9    12    29    1
    10    30    31    1
    11    13    30    1
    12    14    30    1
    13    26    31    1
    14    20    31    1
    15    24    26   ar
    16    25    26   ar
    17    22    24   ar
    18     8    24    1
    19    23    25   ar
    20    19    25    1
    21    21    23   ar
    22     7    23    1
    23    21    22   ar
    24     5    21    1
    25     6    22    1
    26    19    20   ar
    27    17    19   ar
    28    18    20   ar
    29    16    18   ar
    30     4    18    1
    31    15    17   ar
    32     3    17    1
    33    15    16   ar
    34     1    15    1
    35     2    16    1
@<TRIPOS>SUBSTRUCTURE
     1 lig         1 TEMP              0 ****  ****    0 ROOT


########## Name:		ligand
########## HA_RMSDs:		13.9717
########## HA_RMSDh:		13.7279
########## HA_RMSDm:		9.9873
########## Cluster Size:	3
##########    Grid Score:          -19.463421
##########      Grid_vdw:          -19.417419
##########       Grid_es:           -0.046002
##########    Int_energy:            3.740463

@<TRIPOS>MOLECULE
ligand
 33 35 1 0 0
SMALL
No Charge or Current Charge


@<TRIPOS>ATOM
      1 H1         18.8240   27.6216   15.0894 H       1  lig         0.0618
      2 H2         19.2215   29.6152   16.4635 H       1  lig         0.0618
      3 H3         20.5561   26.7856   13.5033 H       1  lig         0.0624
      4 H4         21.3278   30.9075   16.3338 H       1  lig         0.0638
      5 H5         24.8819   26.5096   10.8924 H       1  lig         0.0618
      6 H6         26.4257   28.3748   11.3233 H       1  lig         0.0618
      7 H7         22.6734   26.4093   12.0414 H       1  lig         0.0624
      8 H8         25.9862   30.0846   13.0444 H       1  lig         0.0638
      9 H9         26.2238   32.0079   17.6805 H       1  lig         0.0379
     10 H10        25.9359   32.9321   16.2320 H       1  lig         0.0379
     11 H11        24.2780   30.4585   17.0696 H       1  lig         0.0288
     12 H12        25.7012   30.3639   16.0560 H       1  lig         0.0288
     13 H13        24.6621   31.7560   14.3153 H       1  lig         0.0492
     14 H14        23.2312   31.9846   15.3181 H       1  lig         0.0492
     15 C1         19.7679   28.1512   14.9955 C.ar    1  lig        -0.0611
     16 C2         19.9970   29.2950   15.7738 C.ar    1  lig        -0.0598
     17 C3         20.7345   27.6751   14.1016 C.ar    1  lig        -0.0520
     18 C4         21.1865   30.0298   15.7090 C.ar    1  lig        -0.0376
     19 C5         21.9222   28.4030   14.0240 C.ar    1  lig         0.0076
     20 C6         22.1897   29.6133   14.8261 C.ar    1  lig         0.0501
     21 C7         24.6347   27.2477   11.6528 C.ar    1  lig        -0.0611
     22 C8         25.5506   28.2730   11.9413 C.ar    1  lig        -0.0598
     23 C9         23.3835   27.1923   12.2826 C.ar    1  lig        -0.0520
     24 C10        25.2717   29.2829   12.8782 C.ar    1  lig        -0.0376
     25 C11        23.1043   28.1844   13.2133 C.ar    1  lig         0.0076
     26 C12        24.0443   29.2793   13.5432 C.ar    1  lig         0.0501
     27 C13        24.4062   33.0814   17.7290 C.2     1  lig         0.3561
     28 C14        25.4492   32.2926   16.9674 C.3     1  lig         0.0508
     29 C15        24.8673   31.0122   16.3374 C.3     1  lig        -0.0247
     30 C16        24.0325   31.2814   15.0720 C.3     1  lig         0.0244
     31 N1         23.4415   30.0622   14.4991 N.pl3   1  lig        -0.3398
     32 O1         24.7621   34.0862   18.5233 O.co2   1  lig        -0.2464
     33 O2         23.2173   32.8119   17.6372 O.co2   1  lig        -0.2464
@<TRIPOS>BOND
     1    27    33    1
     2    27    32    1
     3    27    28    1
     4    28    29    1
     5     9    28    1
     6    10    28    1
     7    29    30    1
     8    11    29    1
     9    12    29    1
    10    30    31    1
    11    13    30    1
    12    14    30    1
    13    26    31    1
    14    20    31    1
    15    24    26   ar
    16    25    26   ar
    17    22    24   ar
    18     8    24    1
    19    23    25   ar
    20    19    25    1
    21    21    23   ar
    22     7    23    1
    23    21    22   ar
    24     5    21    1
    25     6    22    1
    26    19    20   ar
    27    17    19   ar
    28    18    20   ar
    29    16    18   ar
    30     4    18    1
    31    15    17   ar
    32     3    17    1
    33    15    16   ar
    34     1    15    1
    35     2    16    1
@<TRIPOS>SUBSTRUCTURE
     1 lig         1 TEMP              0 ****  ****    0 ROOT


########## Name:		ligand
########## HA_RMSDs:		13.0789
########## HA_RMSDh:		13.0468
########## HA_RMSDm:		9.8854
########## Cluster Size:	2
##########    Grid Score:          -19.352772
##########      Grid_vdw:          -19.089436
##########       Grid_es:           -0.263336
##########    Int_energy:            2.911754

@<TRIPOS>MOLECULE
ligand
 33 35 1 0 0
SMALL
No Charge or Current Charge


@<TRIPOS>ATOM
      1 H1         22.2507   28.7401   16.0875 H       1  lig         0.0618
      2 H2         21.3903   26.6785   15.0726 H       1  lig         0.0618
      3 H3         21.3488   30.9702   15.4333 H       1  lig         0.0624
      4 H4         19.6196   26.6992   13.3440 H       1  lig         0.0638
      5 H5         18.5946   34.4732   13.0356 H       1  lig         0.0618
      6 H6         17.1116   33.5578   11.3004 H       1  lig         0.0618
      7 H7         20.0694   32.9630   14.3592 H       1  lig         0.0624
      8 H8         16.8369   31.1344   10.9394 H       1  lig         0.0638
      9 H9         15.1000   29.5784   11.7411 H       1  lig         0.0379
     10 H10        15.3922   28.6105   10.3223 H       1  lig         0.0379
     11 H11        16.2746   26.8132   12.1660 H       1  lig         0.0288
     12 H12        16.3361   28.2273   13.1947 H       1  lig         0.0288
     13 H13        17.6402   28.7388   10.6055 H       1  lig         0.0492
     14 H14        18.3678   27.3898   11.4752 H       1  lig         0.0492
     15 C1         21.4704   28.8050   15.3344 C.ar    1  lig        -0.0611
     16 C2         20.9803   27.6299   14.7465 C.ar    1  lig        -0.0598
     17 C3         20.9705   30.0616   14.9724 C.ar    1  lig        -0.0520
     18 C4         19.9768   27.6324   13.7707 C.ar    1  lig        -0.0376
     19 C5         19.9739   30.0770   13.9962 C.ar    1  lig         0.0076
     20 C6         19.4422   28.8576   13.3557 C.ar    1  lig         0.0501
     21 C7         18.5199   33.3954   12.9057 C.ar    1  lig        -0.0611
     22 C8         17.6218   32.8762   11.9586 C.ar    1  lig        -0.0598
     23 C9         19.3648   32.5545   13.6435 C.ar    1  lig        -0.0520
     24 C10        17.5117   31.4972   11.7100 C.ar    1  lig        -0.0376
     25 C11        19.2568   31.1906   13.4061 C.ar    1  lig         0.0076
     26 C12        18.3223   30.6076   12.4173 C.ar    1  lig         0.0501
     27 C13        13.8959   27.8459   11.6564 C.2     1  lig         0.3561
     28 C14        15.2096   28.5501   11.3945 C.3     1  lig         0.0508
     29 C15        16.3821   27.8987   12.1533 C.3     1  lig        -0.0247
     30 C16        17.7621   28.2930   11.5958 C.3     1  lig         0.0244
     31 N1         18.4836   29.2428   12.4567 N.pl3   1  lig        -0.3398
     32 O1         12.8906   27.9426   10.7920 O.co2   1  lig        -0.2464
     33 O2         13.7260   27.1788   12.6666 O.co2   1  lig        -0.2464
@<TRIPOS>BOND
     1    27    33    1
     2    27    32    1
     3    27    28    1
     4    28    29    1
     5     9    28    1
     6    10    28    1
     7    29    30    1
     8    11    29    1
     9    12    29    1
    10    30    31    1
    11    13    30    1
    12    14    30    1
    13    26    31    1
    14    20    31    1
    15    24    26   ar
    16    25    26   ar
    17    22    24   ar
    18     8    24    1
    19    23    25   ar
    20    19    25    1
    21    21    23   ar
    22     7    23    1
    23    21    22   ar
    24     5    21    1
    25     6    22    1
    26    19    20   ar
    27    17    19   ar
    28    18    20   ar
    29    16    18   ar
    30     4    18    1
    31    15    17   ar
    32     3    17    1
    33    15    16   ar
    34     1    15    1
    35     2    16    1
@<TRIPOS>SUBSTRUCTURE
     1 lig         1 TEMP              0 ****  ****    0 ROOT


########## Name:		ligand
########## HA_RMSDs:		15.4517
########## HA_RMSDh:		15.0477
########## HA_RMSDm:		13.7141
########## Cluster Size:	1
##########    Grid Score:          -19.341171
##########      Grid_vdw:          -19.493793
##########       Grid_es:            0.152622
##########    Int_energy:            4.357744

@<TRIPOS>MOLECULE
ligand
 33 35 1 0 0
SMALL
No Charge or Current Charge


@<TRIPOS>ATOM
      1 H1         11.6982    2.3872   13.2756 H       1  lig         0.0618
      2 H2         13.7259    3.3908   12.3260 H       1  lig         0.0618
      3 H3         11.4350    2.1028   15.7383 H       1  lig         0.0624
      4 H4         15.6118    4.1429   13.7407 H       1  lig         0.0638
      5 H5         12.5083    2.2027   20.6823 H       1  lig         0.0618
      6 H6         14.7662    3.0320   21.1945 H       1  lig         0.0618
      7 H7         11.7300    2.0403   18.3211 H       1  lig         0.0624
      8 H8         16.2648    3.9434   19.4618 H       1  lig         0.0638
      9 H9         18.4172    5.5877   14.5592 H       1  lig         0.0379
     10 H10        18.0860    7.2712   14.8617 H       1  lig         0.0379
     11 H11        15.9896    5.9840   15.2174 H       1  lig         0.0288
     12 H12        16.5620    6.5289   16.7786 H       1  lig         0.0288
     13 H13        17.3098    4.3998   17.4569 H       1  lig         0.0492
     14 H14        17.3815    3.7874   15.8061 H       1  lig         0.0492
     15 C1         12.4960    2.7031   13.9419 C.ar    1  lig        -0.0611
     16 C2         13.6596    3.2709   13.4034 C.ar    1  lig        -0.0598
     17 C3         12.3400    2.5387   15.3235 C.ar    1  lig        -0.0520
     18 C4         14.7294    3.7019   14.1965 C.ar    1  lig        -0.0376
     19 C5         13.4025    2.9593   16.1239 C.ar    1  lig         0.0076
     20 C6         14.6416    3.5551   15.5857 C.ar    1  lig         0.0501
     21 C7         13.1374    2.5810   19.8791 C.ar    1  lig        -0.0611
     22 C8         14.4000    3.1149   20.1860 C.ar    1  lig        -0.0598
     23 C9         12.6977    2.4711   18.5525 C.ar    1  lig        -0.0520
     24 C10        15.2786    3.5765   19.1908 C.ar    1  lig        -0.0376
     25 C11        13.5592    2.9305   17.5651 C.ar    1  lig         0.0076
     26 C12        14.8957    3.4992   17.8505 C.ar    1  lig         0.0501
     27 C13        19.2566    6.2865   16.3664 C.2     1  lig         0.3561
     28 C14        18.1422    6.2952   15.3424 C.3     1  lig         0.0508
     29 C15        16.7925    5.8599   15.9454 C.3     1  lig        -0.0247
     30 C16        16.8045    4.4191   16.4881 C.3     1  lig         0.0244
     31 N1         15.4574    3.8493   16.6456 N.pl3   1  lig        -0.3398
     32 O1         19.8094    7.4237   16.7766 O.co2   1  lig        -0.2464
     33 O2         19.6771    5.2386   16.8350 O.co2   1  lig        -0.2464
@<TRIPOS>BOND
     1    27    33    1
     2    27    32    1
     3    27    28    1
     4    28    29    1
     5     9    28    1
     6    10    28    1
     7    29    30    1
     8    11    29    1
     9    12    29    1
    10    30    31    1
    11    13    30    1
    12    14    30    1
    13    26    31    1
    14    20    31    1
    15    24    26   ar
    16    25    26   ar
    17    22    24   ar
    18     8    24    1
    19    23    25   ar
    20    19    25    1
    21    21    23   ar
    22     7    23    1
    23    21    22   ar
    24     5    21    1
    25     6    22    1
    26    19    20   ar
    27    17    19   ar
    28    18    20   ar
    29    16    18   ar
    30     4    18    1
    31    15    17   ar
    32     3    17    1
    33    15    16   ar
    34     1    15    1
    35     2    16    1
@<TRIPOS>SUBSTRUCTURE
     1 lig         1 TEMP              0 ****  ****    0 ROOT


########## Name:		ligand
########## HA_RMSDs:		14.0523
########## HA_RMSDh:		13.5495
########## HA_RMSDm:		9.4400
########## Cluster Size:	1
##########    Grid Score:          -19.329262
##########      Grid_vdw:          -19.167683
##########       Grid_es:           -0.161578
##########    Int_energy:            3.443059

@<TRIPOS>MOLECULE
ligand
 33 35 1 0 0
SMALL
No Charge or Current Charge


@<TRIPOS>ATOM
      1 H1         21.5518   11.3548    5.7264 H       1  lig         0.0618
      2 H2         22.5179   13.3667    4.7067 H       1  lig         0.0618
      3 H3         22.2713   10.5847    7.9856 H       1  lig         0.0624
      4 H4         24.2591   14.7123    5.8387 H       1  lig         0.0638
      5 H5         24.7806   10.4026   12.3760 H       1  lig         0.0618
      6 H6         26.5016   12.1434   12.6122 H       1  lig         0.0618
      7 H7         23.4069   10.2604   10.3023 H       1  lig         0.0624
      8 H8         26.8003   13.9416   10.9520 H       1  lig         0.0638
      9 H9         28.3283   16.4542    8.7444 H       1  lig         0.0379
     10 H10        29.5053   15.6094    7.7768 H       1  lig         0.0379
     11 H11        27.8752   13.9030    8.3644 H       1  lig         0.0288
     12 H12        27.4329   14.3679    6.7364 H       1  lig         0.0288
     13 H13        25.5822   15.7013    7.4442 H       1  lig         0.0492
     14 H14        26.1201   15.7038    9.1223 H       1  lig         0.0492
     15 C1         22.3119   11.9112    6.2676 C.ar    1  lig        -0.0611
     16 C2         22.8719   13.0578    5.6860 C.ar    1  lig        -0.0598
     17 C3         22.7106   11.4709    7.5353 C.ar    1  lig        -0.0520
     18 C4         23.8547   13.8263    6.3206 C.ar    1  lig        -0.0376
     19 C5         23.6941   12.2258    8.1752 C.ar    1  lig         0.0076
     20 C6         24.3058   13.4335    7.5860 C.ar    1  lig         0.0501
     21 C7         24.8825   11.1660   11.6073 C.ar    1  lig        -0.0611
     22 C8         25.8219   12.1961   11.7794 C.ar    1  lig        -0.0598
     23 C9         24.1166   11.0689   10.4371 C.ar    1  lig        -0.0520
     24 C10        26.0347   13.1849   10.8034 C.ar    1  lig        -0.0376
     25 C11        24.3185   12.0461    9.4714 C.ar    1  lig         0.0076
     26 C12        25.2983   13.1459    9.6181 C.ar    1  lig         0.0501
     27 C13        28.1949   16.9135    6.6878 C.2     1  lig         0.3561
     28 C14        28.4625   15.9238    7.8009 C.3     1  lig         0.0508
     29 C15        27.4891   14.7296    7.7664 C.3     1  lig        -0.0247
     30 C16        26.0622   15.0941    8.2156 C.3     1  lig         0.0244
     31 N1         25.2215   13.9168    8.4824 N.pl3   1  lig        -0.3398
     32 O1         28.5633   18.1852    6.8079 O.co2   1  lig        -0.2464
     33 O2         27.6315   16.5708    5.6583 O.co2   1  lig        -0.2464
@<TRIPOS>BOND
     1    27    33    1
     2    27    32    1
     3    27    28    1
     4    28    29    1
     5     9    28    1
     6    10    28    1
     7    29    30    1
     8    11    29    1
     9    12    29    1
    10    30    31    1
    11    13    30    1
    12    14    30    1
    13    26    31    1
    14    20    31    1
    15    24    26   ar
    16    25    26   ar
    17    22    24   ar
    18     8    24    1
    19    23    25   ar
    20    19    25    1
    21    21    23   ar
    22     7    23    1
    23    21    22   ar
    24     5    21    1
    25     6    22    1
    26    19    20   ar
    27    17    19   ar
    28    18    20   ar
    29    16    18   ar
    30     4    18    1
    31    15    17   ar
    32     3    17    1
    33    15    16   ar
    34     1    15    1
    35     2    16    1
@<TRIPOS>SUBSTRUCTURE
     1 lig         1 TEMP              0 ****  ****    0 ROOT


########## Name:		ligand
########## HA_RMSDs:		14.9491
########## HA_RMSDh:		14.6066
########## HA_RMSDm:		8.0302
########## Cluster Size:	1
##########    Grid Score:          -19.267647
##########      Grid_vdw:          -19.736071
##########       Grid_es:            0.468423
##########    Int_energy:            2.700838

@<TRIPOS>MOLECULE
ligand
 33 35 1 0 0
SMALL
No Charge or Current Charge


@<TRIPOS>ATOM
      1 H1         13.7381   18.6649    7.7374 H       1  lig         0.0618
      2 H2         12.2449   20.0413    6.3604 H       1  lig         0.0618
      3 H3         16.2150   18.8989    7.5788 H       1  lig         0.0624
      4 H4         13.1041   21.6998    4.7371 H       1  lig         0.0638
      5 H5         20.7529   20.5224    6.0372 H       1  lig         0.0618
      6 H6         20.6548   22.1638    4.2085 H       1  lig         0.0618
      7 H7         18.6584   19.5526    6.9751 H       1  lig         0.0624
      8 H8         18.5272   23.0920    3.3774 H       1  lig         0.0638
      9 H9         13.7671   24.9390    2.3999 H       1  lig         0.0379
     10 H10        14.2251   26.3020    3.3836 H       1  lig         0.0379
     11 H11        14.3425   24.2580    4.7884 H       1  lig         0.0288
     12 H12        15.9802   24.7924    4.4813 H       1  lig         0.0288
     13 H13        16.2257   23.1396    2.6372 H       1  lig         0.0492
     14 H14        14.5869   22.5661    2.9388 H       1  lig         0.0492
     15 C1         14.1674   19.3804    7.0418 C.ar    1  lig        -0.0611
     16 C2         13.3181   20.1645    6.2477 C.ar    1  lig        -0.0598
     17 C3         15.5594   19.5045    6.9586 C.ar    1  lig        -0.0520
     18 C4         13.7956   21.1070    5.3296 C.ar    1  lig        -0.0376
     19 C5         16.0472   20.4367    6.0424 C.ar    1  lig         0.0076
     20 C6         15.1785   21.2720    5.1894 C.ar    1  lig         0.0501
     21 C7         19.7874   20.8902    5.6959 C.ar    1  lig        -0.0611
     22 C8         19.7399   21.8768    4.6970 C.ar    1  lig        -0.0598
     23 C9         18.6144   20.3275    6.2180 C.ar    1  lig        -0.0520
     24 C10        18.5253   22.3596    4.1801 C.ar    1  lig        -0.0376
     25 C11        17.4111   20.8043    5.7151 C.ar    1  lig         0.0076
     26 C12        17.3221   21.8426    4.6639 C.ar    1  lig         0.0501
     27 C13        15.6771   25.7021    1.9222 C.2     1  lig         0.3561
     28 C14        14.6044   25.3819    2.9406 C.3     1  lig         0.0508
     29 C15        15.0899   24.3764    4.0027 C.3     1  lig        -0.0247
     30 C16        15.4692   23.0050    3.4143 C.3     1  lig         0.0244
     31 N1         15.9875   22.0669    4.4219 N.pl3   1  lig        -0.3398
     32 O1         15.7992   24.9767    0.8149 O.co2   1  lig        -0.2464
     33 O2         16.4570   26.6277    2.0945 O.co2   1  lig        -0.2464
@<TRIPOS>BOND
     1    27    33    1
     2    27    32    1
     3    27    28    1
     4    28    29    1
     5     9    28    1
     6    10    28    1
     7    29    30    1
     8    11    29    1
     9    12    29    1
    10    30    31    1
    11    13    30    1
    12    14    30    1
    13    26    31    1
    14    20    31    1
    15    24    26   ar
    16    25    26   ar
    17    22    24   ar
    18     8    24    1
    19    23    25   ar
    20    19    25    1
    21    21    23   ar
    22     7    23    1
    23    21    22   ar
    24     5    21    1
    25     6    22    1
    26    19    20   ar
    27    17    19   ar
    28    18    20   ar
    29    16    18   ar
    30     4    18    1
    31    15    17   ar
    32     3    17    1
    33    15    16   ar
    34     1    15    1
    35     2    16    1
@<TRIPOS>SUBSTRUCTURE
     1 lig         1 TEMP              0 ****  ****    0 ROOT


########## Name:		ligand
########## HA_RMSDs:		14.1050
########## HA_RMSDh:		14.0915
########## HA_RMSDm:		10.7378
########## Cluster Size:	2
##########    Grid Score:          -19.246819
##########      Grid_vdw:          -19.172752
##########       Grid_es:           -0.074067
##########    Int_energy:            2.744141

@<TRIPOS>MOLECULE
ligand
 33 35 1 0 0
SMALL
No Charge or Current Charge


@<TRIPOS>ATOM
      1 H1         28.5161   25.3739   11.4489 H       1  lig         0.0618
      2 H2         26.5381   25.0522   12.8647 H       1  lig         0.0618
      3 H3         28.3489   26.5340    9.2486 H       1  lig         0.0624
      4 H4         24.2890   25.8278   12.1839 H       1  lig         0.0638
      5 H5         26.3317   28.9099    5.2622 H       1  lig         0.0618
      6 H6         23.8876   29.1556    5.3815 H       1  lig         0.0618
      7 H7         27.5748   27.7647    7.0927 H       1  lig         0.0624
      8 H8         22.5889   28.5057    7.3739 H       1  lig         0.0638
      9 H9         20.5187   27.2928   11.9931 H       1  lig         0.0379
     10 H10        20.5864   28.9891   12.3843 H       1  lig         0.0379
     11 H11        22.9041   28.1867   11.9866 H       1  lig         0.0288
     12 H12        22.4519   29.2164   10.6460 H       1  lig         0.0288
     13 H13        21.8683   27.2242    9.2615 H       1  lig         0.0492
     14 H14        22.3664   26.1725   10.5848 H       1  lig         0.0492
     15 C1         27.5519   25.7362   11.1036 C.ar    1  lig        -0.0611
     16 C2         26.4173   25.5486   11.9063 C.ar    1  lig        -0.0598
     17 C3         27.4671   26.3856    9.8663 C.ar    1  lig        -0.0520
     18 C4         25.1423   25.9870   11.5303 C.ar    1  lig        -0.0376
     19 C5         26.2000   26.8218    9.4782 C.ar    1  lig         0.0076
     20 C6         24.9871   26.6338   10.2988 C.ar    1  lig         0.0501
     21 C7         25.8024   28.5934    6.1588 C.ar    1  lig        -0.0611
     22 C8         24.4154   28.7973    6.2482 C.ar    1  lig        -0.0598
     23 C9         26.5075   27.9359    7.1765 C.ar    1  lig        -0.0520
     24 C10        23.6668   28.3695    7.3582 C.ar    1  lig        -0.0376
     25 C11        25.7742   27.5158    8.2784 C.ar    1  lig         0.0076
     26 C12        24.3129   27.7135    8.4075 C.ar    1  lig         0.0501
     27 C13        19.8119   28.5319   10.4364 C.2     1  lig         0.3561
     28 C14        20.7649   28.2730   11.5831 C.3     1  lig         0.0508
     29 C15        22.2367   28.2585   11.1266 C.3     1  lig        -0.0247
     30 C16        22.5488   27.1426   10.1127 C.3     1  lig         0.0244
     31 N1         23.9333   27.1821    9.6173 N.pl3   1  lig        -0.3398
     32 O1         19.3016   27.5226    9.7377 O.co2   1  lig        -0.2464
     33 O2         19.4938   29.6698   10.1226 O.co2   1  lig        -0.2464
@<TRIPOS>BOND
     1    27    33    1
     2    27    32    1
     3    27    28    1
     4    28    29    1
     5     9    28    1
     6    10    28    1
     7    29    30    1
     8    11    29    1
     9    12    29    1
    10    30    31    1
    11    13    30    1
    12    14    30    1
    13    26    31    1
    14    20    31    1
    15    24    26   ar
    16    25    26   ar
    17    22    24   ar
    18     8    24    1
    19    23    25   ar
    20    19    25    1
    21    21    23   ar
    22     7    23    1
    23    21    22   ar
    24     5    21    1
    25     6    22    1
    26    19    20   ar
    27    17    19   ar
    28    18    20   ar
    29    16    18   ar
    30     4    18    1
    31    15    17   ar
    32     3    17    1
    33    15    16   ar
    34     1    15    1
    35     2    16    1
@<TRIPOS>SUBSTRUCTURE
     1 lig         1 TEMP              0 ****  ****    0 ROOT


########## Name:		ligand
########## HA_RMSDs:		13.2654
########## HA_RMSDh:		12.9445
########## HA_RMSDm:		10.4873
########## Cluster Size:	1
##########    Grid Score:          -19.034039
##########      Grid_vdw:          -19.387291
##########       Grid_es:            0.353253
##########    Int_energy:            3.525853

@<TRIPOS>MOLECULE
ligand
 33 35 1 0 0
SMALL
No Charge or Current Charge


@<TRIPOS>ATOM
      1 H1         24.4621   27.8803   10.0906 H       1  lig         0.0618
      2 H2         22.3311   26.7017   10.3911 H       1  lig         0.0618
      3 H3         25.3947   29.3321   11.8899 H       1  lig         0.0624
      4 H4         20.9914   26.9070   12.4615 H       1  lig         0.0638
      5 H5         25.7885   31.7947   16.2928 H       1  lig         0.0618
      6 H6         23.8417   31.5132   17.7688 H       1  lig         0.0618
      7 H7         25.8455   30.6965   14.0571 H       1  lig         0.0624
      8 H8         21.9855   29.9819   17.2316 H       1  lig         0.0638
      9 H9         19.2739   28.8897   13.2149 H       1  lig         0.0379
     10 H10        17.8083   29.3209   14.0524 H       1  lig         0.0379
     11 H11        18.9019   29.0292   16.1051 H       1  lig         0.0288
     12 H12        20.1354   30.1677   15.6108 H       1  lig         0.0288
     13 H13        20.2688   27.3429   14.5399 H       1  lig         0.0492
     14 H14        20.8220   27.6921   16.1763 H       1  lig         0.0492
     15 C1         23.9145   28.0030   11.0208 C.ar    1  lig        -0.0611
     16 C2         22.6928   27.3368   11.1946 C.ar    1  lig        -0.0598
     17 C3         24.4452   28.8209   12.0254 C.ar    1  lig        -0.0520
     18 C4         21.9304   27.4448   12.3635 C.ar    1  lig        -0.0376
     19 C5         23.6911   28.9410   13.1930 C.ar    1  lig         0.0076
     20 C6         22.3997   28.2568   13.4025 C.ar    1  lig         0.0501
     21 C7         24.9874   31.1178   16.0030 C.ar    1  lig        -0.0611
     22 C8         23.9099   30.9100   16.8802 C.ar    1  lig        -0.0598
     23 C9         25.0202   30.5168   14.7370 C.ar    1  lig        -0.0520
     24 C10        22.8220   30.0853   16.5459 C.ar    1  lig        -0.0376
     25 C11        23.9507   29.6965   14.4031 C.ar    1  lig         0.0076
     26 C12        22.7992   29.4538   15.3011 C.ar    1  lig         0.0501
     27 C13        19.0734   30.9696   13.5189 C.2     1  lig         0.3561
     28 C14        18.8724   29.5452   13.9887 C.3     1  lig         0.0508
     29 C15        19.6125   29.2565   15.3092 C.3     1  lig        -0.0247
     30 C16        20.6576   28.1322   15.1881 C.3     1  lig         0.0244
     31 N1         21.9455   28.5957   14.6493 N.pl3   1  lig        -0.3398
     32 O1         20.1081   31.2899   12.7481 O.co2   1  lig        -0.2464
     33 O2         18.2962   31.8572   13.8394 O.co2   1  lig        -0.2464
@<TRIPOS>BOND
     1    27    33    1
     2    27    32    1
     3    27    28    1
     4    28    29    1
     5     9    28    1
     6    10    28    1
     7    29    30    1
     8    11    29    1
     9    12    29    1
    10    30    31    1
    11    13    30    1
    12    14    30    1
    13    26    31    1
    14    20    31    1
    15    24    26   ar
    16    25    26   ar
    17    22    24   ar
    18     8    24    1
    19    23    25   ar
    20    19    25    1
    21    21    23   ar
    22     7    23    1
    23    21    22   ar
    24     5    21    1
    25     6    22    1
    26    19    20   ar
    27    17    19   ar
    28    18    20   ar
    29    16    18   ar
    30     4    18    1
    31    15    17   ar
    32     3    17    1
    33    15    16   ar
    34     1    15    1
    35     2    16    1
@<TRIPOS>SUBSTRUCTURE
     1 lig         1 TEMP              0 ****  ****    0 ROOT


########## Name:		ligand
########## HA_RMSDs:		15.2007
########## HA_RMSDh:		15.0047
########## HA_RMSDm:		11.3980
########## Cluster Size:	2
##########    Grid Score:          -19.028767
##########      Grid_vdw:          -19.102215
##########       Grid_es:            0.073448
##########    Int_energy:            2.948972

@<TRIPOS>MOLECULE
ligand
 33 35 1 0 0
SMALL
No Charge or Current Charge


@<TRIPOS>ATOM
      1 H1         25.3665   29.0199    6.0071 H       1  lig         0.0618
      2 H2         27.6196   28.1595    6.4588 H       1  lig         0.0618
      3 H3         23.5454   28.8079    7.6963 H       1  lig         0.0624
      4 H4         28.1962   27.0229    8.5800 H       1  lig         0.0638
      5 H5         21.1370   27.5540   11.9663 H       1  lig         0.0618
      6 H6         22.5136   26.2641   13.5439 H       1  lig         0.0618
      7 H7         22.0783   28.2882    9.7794 H       1  lig         0.0624
      8 H8         24.9111   25.8340   13.1617 H       1  lig         0.0638
      9 H9         29.2542   27.9651   10.9816 H       1  lig         0.0379
     10 H10        27.7797   28.8116   11.3618 H       1  lig         0.0379
     11 H11        27.3324   27.0332   13.1774 H       1  lig         0.0288
     12 H12        28.8443   26.2733   12.7316 H       1  lig         0.0288
     13 H13        26.9627   25.0632   11.7115 H       1  lig         0.0492
     14 H14        28.0305   25.7439   10.4859 H       1  lig         0.0492
     15 C1         25.5674   28.5310    6.9563 C.ar    1  lig        -0.0611
     16 C2         26.8517   28.0316    7.2163 C.ar    1  lig        -0.0598
     17 C3         24.5385   28.4156    7.8986 C.ar    1  lig        -0.0520
     18 C4         27.1872   27.3905    8.4144 C.ar    1  lig        -0.0376
     19 C5         24.8595   27.7729    9.0946 C.ar    1  lig         0.0076
     20 C6         26.2003   27.2323    9.3943 C.ar    1  lig         0.0501
     21 C7         22.1877   27.3783   11.7442 C.ar    1  lig        -0.0611
     22 C8         22.9853   26.6985   12.6797 C.ar    1  lig        -0.0598
     23 C9         22.7044   27.7810   10.5048 C.ar    1  lig        -0.0520
     24 C10        24.3362   26.3992   12.4331 C.ar    1  lig        -0.0376
     25 C11        24.0401   27.4928   10.2576 C.ar    1  lig         0.0076
     26 C12        24.9107   26.7794   11.2189 C.ar    1  lig         0.0501
     27 C13        29.3248   28.9593   12.8431 C.2     1  lig         0.3561
     28 C14        28.5589   28.1842   11.7929 C.3     1  lig         0.0508
     29 C15        28.0055   26.8533   12.3380 C.3     1  lig        -0.0247
     30 C16        27.3057   25.9997   11.2646 C.3     1  lig         0.0244
     31 N1         26.1562   26.6776   10.6457 N.pl3   1  lig        -0.3398
     32 O1         30.6319   28.7761   13.0022 O.co2   1  lig        -0.2464
     33 O2         28.7623   29.7647   13.5707 O.co2   1  lig        -0.2464
@<TRIPOS>BOND
     1    27    33    1
     2    27    32    1
     3    27    28    1
     4    28    29    1
     5     9    28    1
     6    10    28    1
     7    29    30    1
     8    11    29    1
     9    12    29    1
    10    30    31    1
    11    13    30    1
    12    14    30    1
    13    26    31    1
    14    20    31    1
    15    24    26   ar
    16    25    26   ar
    17    22    24   ar
    18     8    24    1
    19    23    25   ar
    20    19    25    1
    21    21    23   ar
    22     7    23    1
    23    21    22   ar
    24     5    21    1
    25     6    22    1
    26    19    20   ar
    27    17    19   ar
    28    18    20   ar
    29    16    18   ar
    30     4    18    1
    31    15    17   ar
    32     3    17    1
    33    15    16   ar
    34     1    15    1
    35     2    16    1
@<TRIPOS>SUBSTRUCTURE
     1 lig         1 TEMP              0 ****  ****    0 ROOT


########## Name:		ligand
########## HA_RMSDs:		12.9622
########## HA_RMSDh:		12.9592
########## HA_RMSDm:		8.7772
########## Cluster Size:	1
##########    Grid Score:          -19.019609
##########      Grid_vdw:          -19.102747
##########       Grid_es:            0.083137
##########    Int_energy:            4.457038

@<TRIPOS>MOLECULE
ligand
 33 35 1 0 0
SMALL
No Charge or Current Charge


@<TRIPOS>ATOM
      1 H1         21.3145   27.0193   15.2934 H       1  lig         0.0618
      2 H2         21.2975   29.4536   15.6009 H       1  lig         0.0618
      3 H3         19.5181   25.8730   13.9996 H       1  lig         0.0624
      4 H4         19.5035   30.8867   14.6780 H       1  lig         0.0638
      5 H5         15.2938   25.1911   11.2986 H       1  lig         0.0618
      6 H6         13.9970   27.2500   10.9416 H       1  lig         0.0618
      7 H7         17.4125   25.2463   12.6083 H       1  lig         0.0624
      8 H8         14.8161   29.4671   11.6431 H       1  lig         0.0638
      9 H9         19.3413   31.3390   11.9417 H       1  lig         0.0379
     10 H10        18.9947   32.5187   10.7074 H       1  lig         0.0379
     11 H11        16.9378   31.2117   10.9897 H       1  lig         0.0288
     12 H12        16.6468   32.7331   11.8037 H       1  lig         0.0288
     13 H13        15.8401   31.1569   13.3498 H       1  lig         0.0492
     14 H14        17.4209   31.6091   13.9840 H       1  lig         0.0492
     15 C1         20.5042   27.6026   14.8650 C.ar    1  lig        -0.0611
     16 C2         20.4866   28.9934   15.0438 C.ar    1  lig        -0.0598
     17 C3         19.4992   26.9504   14.1407 C.ar    1  lig        -0.0520
     18 C4         19.4776   29.8116   14.5226 C.ar    1  lig        -0.0376
     19 C5         18.4847   27.7551   13.6213 C.ar    1  lig         0.0076
     20 C6         18.4364   29.2202   13.7979 C.ar    1  lig         0.0501
     21 C7         15.6924   26.1440   11.6409 C.ar    1  lig        -0.0611
     22 C8         14.9790   27.3246   11.3754 C.ar    1  lig        -0.0598
     23 C9         16.8769   26.1635   12.3905 C.ar    1  lig        -0.0520
     24 C10        15.4159   28.5806   11.8304 C.ar    1  lig        -0.0376
     25 C11        17.3165   27.4023   12.8383 C.ar    1  lig         0.0076
     26 C12        16.5921   28.6665   12.5776 C.ar    1  lig         0.0501
     27 C13        19.1181   33.2956   12.7036 C.2     1  lig         0.3561
     28 C14        18.7294   32.2140   11.7191 C.3     1  lig         0.0508
     29 C15        17.2449   31.8191   11.8423 C.3     1  lig        -0.0247
     30 C16        16.9148   31.0958   13.1609 C.3     1  lig         0.0244
     31 N1         17.3153   29.6804   13.1599 N.pl3   1  lig        -0.3398
     32 O1         20.3589   33.3693   13.1751 O.co2   1  lig        -0.2464
     33 O2         18.3036   34.1205   13.0915 O.co2   1  lig        -0.2464
@<TRIPOS>BOND
     1    27    33    1
     2    27    32    1
     3    27    28    1
     4    28    29    1
     5     9    28    1
     6    10    28    1
     7    29    30    1
     8    11    29    1
     9    12    29    1
    10    30    31    1
    11    13    30    1
    12    14    30    1
    13    26    31    1
    14    20    31    1
    15    24    26   ar
    16    25    26   ar
    17    22    24   ar
    18     8    24    1
    19    23    25   ar
    20    19    25    1
    21    21    23   ar
    22     7    23    1
    23    21    22   ar
    24     5    21    1
    25     6    22    1
    26    19    20   ar
    27    17    19   ar
    28    18    20   ar
    29    16    18   ar
    30     4    18    1
    31    15    17   ar
    32     3    17    1
    33    15    16   ar
    34     1    15    1
    35     2    16    1
@<TRIPOS>SUBSTRUCTURE
     1 lig         1 TEMP              0 ****  ****    0 ROOT


########## Name:		ligand
########## HA_RMSDs:		13.9164
########## HA_RMSDh:		13.8329
########## HA_RMSDm:		10.1407
########## Cluster Size:	2
##########    Grid Score:          -18.905619
##########      Grid_vdw:          -19.894278
##########       Grid_es:            0.988659
##########    Int_energy:            3.472373

@<TRIPOS>MOLECULE
ligand
 33 35 1 0 0
SMALL
No Charge or Current Charge


@<TRIPOS>ATOM
      1 H1         25.1763   26.8756   10.9090 H       1  lig         0.0618
      2 H2         26.4430   28.9071   11.4463 H       1  lig         0.0618
      3 H3         22.9915   26.3927   12.0084 H       1  lig         0.0624
      4 H4         25.6456   30.5570   13.1092 H       1  lig         0.0638
      5 H5         18.9801   26.8989   15.0510 H       1  lig         0.0618
      6 H6         19.0906   28.8638   16.5258 H       1  lig         0.0618
      7 H7         20.8348   26.4096   13.4609 H       1  lig         0.0624
      8 H8         20.8864   30.5446   16.3570 H       1  lig         0.0638
      9 H9         24.8682   33.2666   16.3934 H       1  lig         0.0379
     10 H10        24.0970   32.6344   17.8220 H       1  lig         0.0379
     11 H11        24.2044   30.3476   16.9380 H       1  lig         0.0288
     12 H12        25.4985   30.7811   15.8429 H       1  lig         0.0288
     13 H13        24.0286   31.9920   14.3608 H       1  lig         0.0492
     14 H14        22.6948   31.9056   15.5093 H       1  lig         0.0492
     15 C1         24.7797   27.5689   11.6453 C.ar    1  lig        -0.0611
     16 C2         25.5034   28.7280   11.9607 C.ar    1  lig        -0.0598
     17 C3         23.5526   27.2893   12.2584 C.ar    1  lig        -0.0520
     18 C4         25.0581   29.6678   12.8975 C.ar    1  lig        -0.0376
     19 C5         23.1013   28.2162   13.1985 C.ar    1  lig         0.0076
     20 C6         23.8434   29.4418   13.5551 C.ar    1  lig         0.0501
     21 C7         19.8023   27.6040   14.9468 C.ar    1  lig        -0.0611
     22 C8         19.8249   28.7590   15.7461 C.ar    1  lig        -0.0598
     23 C9         20.8490   27.3125   14.0610 C.ar    1  lig        -0.0520
     24 C10        20.8814   29.6844   15.6930 C.ar    1  lig        -0.0376
     25 C11        21.8932   28.2259   14.0002 C.ar    1  lig         0.0076
     26 C12        21.9508   29.4530   14.8261 C.ar    1  lig         0.0501
     27 C13        26.2249   32.3715   17.7413 C.2     1  lig         0.3561
     28 C14        24.8646   32.4189   17.0798 C.3     1  lig         0.0508
     29 C15        24.5613   31.1387   16.2772 C.3     1  lig        -0.0247
     30 C16        23.5646   31.3641   15.1255 C.3     1  lig         0.0244
     31 N1         23.1122   30.1122   14.4992 N.pl3   1  lig        -0.3398
     32 O1         26.4777   33.0992   18.8248 O.co2   1  lig        -0.2464
     33 O2         27.1215   31.6707   17.2949 O.co2   1  lig        -0.2464
@<TRIPOS>BOND
     1    27    33    1
     2    27    32    1
     3    27    28    1
     4    28    29    1
     5     9    28    1
     6    10    28    1
     7    29    30    1
     8    11    29    1
     9    12    29    1
    10    30    31    1
    11    13    30    1
    12    14    30    1
    13    26    31    1
    14    20    31    1
    15    24    26   ar
    16    25    26   ar
    17    22    24   ar
    18     8    24    1
    19    23    25   ar
    20    19    25    1
    21    21    23   ar
    22     7    23    1
    23    21    22   ar
    24     5    21    1
    25     6    22    1
    26    19    20   ar
    27    17    19   ar
    28    18    20   ar
    29    16    18   ar
    30     4    18    1
    31    15    17   ar
    32     3    17    1
    33    15    16   ar
    34     1    15    1
    35     2    16    1
@<TRIPOS>SUBSTRUCTURE
     1 lig         1 TEMP              0 ****  ****    0 ROOT


########## Name:		ligand
########## HA_RMSDs:		13.8832
########## HA_RMSDh:		13.5153
########## HA_RMSDm:		9.6886
########## Cluster Size:	1
##########    Grid Score:          -18.772896
##########      Grid_vdw:          -18.414858
##########       Grid_es:           -0.358037
##########    Int_energy:            2.925834

@<TRIPOS>MOLECULE
ligand
 33 35 1 0 0
SMALL
No Charge or Current Charge


@<TRIPOS>ATOM
      1 H1         22.6351   13.5667    5.1352 H       1  lig         0.0618
      2 H2         24.0948   15.4884    5.5786 H       1  lig         0.0618
      3 H3         22.4625   11.6807    6.7563 H       1  lig         0.0624
      4 H4         25.4812   15.6473    7.6222 H       1  lig         0.0638
      5 H5         23.3040    8.8370   10.8564 H       1  lig         0.0618
      6 H6         25.0161    9.7502   12.3672 H       1  lig         0.0618
      7 H7         22.7063   10.0363    8.7560 H       1  lig         0.0624
      8 H8         26.0461   11.9625   12.0154 H       1  lig         0.0638
      9 H9         28.4485   15.7943    9.6038 H       1  lig         0.0379
     10 H10        29.7656   14.8545   10.2500 H       1  lig         0.0379
     11 H11        28.1120   13.4782   11.1787 H       1  lig         0.0288
     12 H12        27.8178   12.9264    9.5444 H       1  lig         0.0288
     13 H13        26.3913   15.3457    9.6543 H       1  lig         0.0492
     14 H14        26.1193   14.6116   11.2331 H       1  lig         0.0492
     15 C1         23.2212   13.5880    6.0497 C.ar    1  lig        -0.0611
     16 C2         24.0621   14.6810    6.3043 C.ar    1  lig        -0.0598
     17 C3         23.1187   12.5241    6.9539 C.ar    1  lig        -0.0520
     18 C4         24.8469   14.7803    7.4589 C.ar    1  lig        -0.0376
     19 C5         23.9011   12.6092    8.1059 C.ar    1  lig         0.0076
     20 C6         24.7993   13.7439    8.3984 C.ar    1  lig         0.0501
     21 C7         23.7395    9.8123   10.6488 C.ar    1  lig        -0.0611
     22 C8         24.6679   10.3584   11.5505 C.ar    1  lig        -0.0598
     23 C9         23.4092   10.4724    9.4569 C.ar    1  lig        -0.0520
     24 C10        25.3010   11.5913   11.3169 C.ar    1  lig        -0.0376
     25 C11        24.0274   11.6936    9.2231 C.ar    1  lig         0.0076
     26 C12        25.0095   12.2999   10.1500 C.ar    1  lig         0.0501
     27 C13        29.2772   14.4525    8.1997 C.2     1  lig         0.3561
     28 C14        28.8792   14.7924    9.6197 C.3     1  lig         0.0508
     29 C15        27.8280   13.8151   10.1808 C.3     1  lig        -0.0247
     30 C16        26.4030   14.3979   10.1983 C.3     1  lig         0.0244
     31 N1         25.4030   13.4982    9.6029 N.pl3   1  lig        -0.3398
     32 O1         28.7426   15.1035    7.1714 O.co2   1  lig        -0.2464
     33 O2         30.0919   13.5719    7.9645 O.co2   1  lig        -0.2464
@<TRIPOS>BOND
     1    27    33    1
     2    27    32    1
     3    27    28    1
     4    28    29    1
     5     9    28    1
     6    10    28    1
     7    29    30    1
     8    11    29    1
     9    12    29    1
    10    30    31    1
    11    13    30    1
    12    14    30    1
    13    26    31    1
    14    20    31    1
    15    24    26   ar
    16    25    26   ar
    17    22    24   ar
    18     8    24    1
    19    23    25   ar
    20    19    25    1
    21    21    23   ar
    22     7    23    1
    23    21    22   ar
    24     5    21    1
    25     6    22    1
    26    19    20   ar
    27    17    19   ar
    28    18    20   ar
    29    16    18   ar
    30     4    18    1
    31    15    17   ar
    32     3    17    1
    33    15    16   ar
    34     1    15    1
    35     2    16    1
@<TRIPOS>SUBSTRUCTURE
     1 lig         1 TEMP              0 ****  ****    0 ROOT


########## Name:		ligand
########## HA_RMSDs:		14.7274
########## HA_RMSDh:		14.7130
########## HA_RMSDm:		8.1557
########## Cluster Size:	1
##########    Grid Score:          -18.748106
##########      Grid_vdw:          -18.974520
##########       Grid_es:            0.226414
##########    Int_energy:            5.304235

@<TRIPOS>MOLECULE
ligand
 33 35 1 0 0
SMALL
No Charge or Current Charge


@<TRIPOS>ATOM
      1 H1         16.4324   21.4091    6.3288 H       1  lig         0.0618
      2 H2         16.1755   19.2419    7.4502 H       1  lig         0.0618
      3 H3         14.5140   22.4877    5.1578 H       1  lig         0.0624
      4 H4         14.0307   18.0077    7.4584 H       1  lig         0.0638
      5 H5          9.8614   23.1924    3.2972 H       1  lig         0.0618
      6 H6          8.3362   21.3031    3.6875 H       1  lig         0.0618
      7 H7         12.2176   23.0980    4.1014 H       1  lig         0.0624
      8 H8          8.9675   19.3561    5.0620 H       1  lig         0.0638
      9 H9         10.9093   15.4691    4.0782 H       1  lig         0.0379
     10 H10         9.7685   16.7029    4.5381 H       1  lig         0.0379
     11 H11        12.6866   16.7109    5.5384 H       1  lig         0.0288
     12 H12        11.4560   15.7466    6.3245 H       1  lig         0.0288
     13 H13        11.4678   17.7057    7.6177 H       1  lig         0.0492
     14 H14        10.0650   17.9013    6.5692 H       1  lig         0.0492
     15 C1         15.4677   20.9103    6.3045 C.ar    1  lig        -0.0611
     16 C2         15.3178   19.6683    6.9382 C.ar    1  lig        -0.0598
     17 C3         14.3961   21.5228    5.6438 C.ar    1  lig        -0.0520
     18 C4         14.1076   18.9651    6.9504 C.ar    1  lig        -0.0376
     19 C5         13.1861   20.8284    5.6443 C.ar    1  lig         0.0076
     20 C6         12.9995   19.5175    6.2976 C.ar    1  lig         0.0501
     21 C7         10.1933   22.3487    3.8989 C.ar    1  lig        -0.0611
     22 C8          9.2960   21.3035    4.1742 C.ar    1  lig        -0.0598
     23 C9         11.5250   22.2968    4.3336 C.ar    1  lig        -0.0520
     24 C10         9.6762   20.1648    4.9051 C.ar    1  lig        -0.0376
     25 C11        11.9051   21.1767    5.0610 C.ar    1  lig         0.0076
     26 C12        10.9879   20.0569    5.3706 C.ar    1  lig         0.0501
     27 C13        11.3960   17.3758    3.3125 C.2     1  lig         0.3561
     28 C14        10.8323   16.5041    4.4136 C.3     1  lig         0.0508
     29 C15        11.6148   16.6520    5.7330 C.3     1  lig        -0.0247
     30 C16        11.1581   17.8538    6.5802 C.3     1  lig         0.0244
     31 N1         11.6987   19.1361    6.1033 N.pl3   1  lig        -0.3398
     32 O1         10.5943   17.9277    2.4069 O.co2   1  lig        -0.2464
     33 O2         12.5967   17.5885    3.2259 O.co2   1  lig        -0.2464
@<TRIPOS>BOND
     1    27    33    1
     2    27    32    1
     3    27    28    1
     4    28    29    1
     5     9    28    1
     6    10    28    1
     7    29    30    1
     8    11    29    1
     9    12    29    1
    10    30    31    1
    11    13    30    1
    12    14    30    1
    13    26    31    1
    14    20    31    1
    15    24    26   ar
    16    25    26   ar
    17    22    24   ar
    18     8    24    1
    19    23    25   ar
    20    19    25    1
    21    21    23   ar
    22     7    23    1
    23    21    22   ar
    24     5    21    1
    25     6    22    1
    26    19    20   ar
    27    17    19   ar
    28    18    20   ar
    29    16    18   ar
    30     4    18    1
    31    15    17   ar
    32     3    17    1
    33    15    16   ar
    34     1    15    1
    35     2    16    1
@<TRIPOS>SUBSTRUCTURE
     1 lig         1 TEMP              0 ****  ****    0 ROOT


########## Name:		ligand
########## HA_RMSDs:		13.2352
########## HA_RMSDh:		12.8175
########## HA_RMSDm:		9.2544
########## Cluster Size:	1
##########    Grid Score:          -18.701256
##########      Grid_vdw:          -18.588846
##########       Grid_es:           -0.112410
##########    Int_energy:            1.805699

@<TRIPOS>MOLECULE
ligand
 33 35 1 0 0
SMALL
No Charge or Current Charge


@<TRIPOS>ATOM
      1 H1         24.5548   15.6183    6.3482 H       1  lig         0.0618
      2 H2         23.1671   14.1575    4.9479 H       1  lig         0.0618
      3 H3         25.3283   14.8849    8.6018 H       1  lig         0.0624
      4 H4         22.4439   11.9124    5.6963 H       1  lig         0.0638
      5 H5         25.9376   12.0118   12.7223 H       1  lig         0.0618
      6 H6         24.6949    9.8909   12.6500 H       1  lig         0.0618
      7 H7         25.8014   13.6187   10.8232 H       1  lig         0.0624
      8 H8         23.4605    9.1490   10.6489 H       1  lig         0.0638
      9 H9         20.1939    8.7397    6.4813 H       1  lig         0.0379
     10 H10        20.3009    7.9657    8.0385 H       1  lig         0.0379
     11 H11        20.6758   10.3513    9.0384 H       1  lig         0.0288
     12 H12        20.6562   10.9487    7.3938 H       1  lig         0.0288
     13 H13        22.6452    9.6278    6.7987 H       1  lig         0.0492
     14 H14        22.6769    8.9084    8.4071 H       1  lig         0.0492
     15 C1         24.2672   14.6403    6.7237 C.ar    1  lig        -0.0611
     16 C2         23.4685   13.8046    5.9299 C.ar    1  lig        -0.0598
     17 C3         24.7053   14.2371    7.9908 C.ar    1  lig        -0.0520
     18 C4         23.0577   12.5323    6.3441 C.ar    1  lig        -0.0376
     19 C5         24.2971   12.9729    8.4170 C.ar    1  lig         0.0076
     20 C6         23.4522   12.0735    7.6063 C.ar    1  lig         0.0501
     21 C7         25.3955   11.7366   11.8199 C.ar    1  lig        -0.0611
     22 C8         24.7427   10.4942   11.7602 C.ar    1  lig        -0.0598
     23 C9         25.3112   12.6535   10.7628 C.ar    1  lig        -0.0520
     24 C10        23.9873   10.0994   10.6426 C.ar    1  lig        -0.0376
     25 C11        24.5706   12.2669    9.6536 C.ar    1  lig         0.0076
     26 C12        23.8702   10.9666    9.5549 C.ar    1  lig         0.0501
     27 C13        18.5542    9.1750    7.7384 C.2     1  lig         0.3561
     28 C14        20.0300    8.8997    7.5477 C.3     1  lig         0.0508
     29 C15        20.9078   10.0799    8.0076 C.3     1  lig        -0.0247
     30 C16        22.4163    9.8139    7.8510 C.3     1  lig         0.0244
     31 N1         23.2521   10.9267    8.3275 N.pl3   1  lig        -0.3398
     32 O1         17.8403    9.7450    6.7727 O.co2   1  lig        -0.2464
     33 O2         17.9864    8.8863    8.7818 O.co2   1  lig        -0.2464
@<TRIPOS>BOND
     1    27    33    1
     2    27    32    1
     3    27    28    1
     4    28    29    1
     5     9    28    1
     6    10    28    1
     7    29    30    1
     8    11    29    1
     9    12    29    1
    10    30    31    1
    11    13    30    1
    12    14    30    1
    13    26    31    1
    14    20    31    1
    15    24    26   ar
    16    25    26   ar
    17    22    24   ar
    18     8    24    1
    19    23    25   ar
    20    19    25    1
    21    21    23   ar
    22     7    23    1
    23    21    22   ar
    24     5    21    1
    25     6    22    1
    26    19    20   ar
    27    17    19   ar
    28    18    20   ar
    29    16    18   ar
    30     4    18    1
    31    15    17   ar
    32     3    17    1
    33    15    16   ar
    34     1    15    1
    35     2    16    1
@<TRIPOS>SUBSTRUCTURE
     1 lig         1 TEMP              0 ****  ****    0 ROOT


########## Name:		ligand
########## HA_RMSDs:		13.2428
########## HA_RMSDh:		13.0284
########## HA_RMSDm:		9.5597
########## Cluster Size:	1
##########    Grid Score:          -18.645569
##########      Grid_vdw:          -17.150986
##########       Grid_es:           -1.494583
##########    Int_energy:            2.139724

@<TRIPOS>MOLECULE
ligand
 33 35 1 0 0
SMALL
No Charge or Current Charge


@<TRIPOS>ATOM
      1 H1         24.1555   15.2147    6.6119 H       1  lig         0.0618
      2 H2         25.9776   16.1778    7.9434 H       1  lig         0.0618
      3 H3         23.1355   13.0232    7.2215 H       1  lig         0.0624
      4 H4         26.9117   15.0288    9.9260 H       1  lig         0.0638
      5 H5         22.2978    8.6855    9.6889 H       1  lig         0.0618
      6 H6         23.8575    8.2794   11.5465 H       1  lig         0.0618
      7 H7         22.4981   10.7452    8.3014 H       1  lig         0.0624
      8 H8         25.5183    9.9525   12.2685 H       1  lig         0.0638
      9 H9         28.5667   11.1068   13.1920 H       1  lig         0.0379
     10 H10        29.9495   10.9396   12.1455 H       1  lig         0.0379
     11 H11        28.1027   11.2105   10.6016 H       1  lig         0.0288
     12 H12        28.7752   12.8226   10.7066 H       1  lig         0.0288
     13 H13        27.0155   13.6959   11.9363 H       1  lig         0.0492
     14 H14        26.6129   12.1477   12.6756 H       1  lig         0.0492
     15 C1         24.5273   14.6698    7.4751 C.ar    1  lig        -0.0611
     16 C2         25.5731   15.2130    8.2351 C.ar    1  lig        -0.0598
     17 C3         23.9492   13.4394    7.8095 C.ar    1  lig        -0.0520
     18 C4         26.1051   14.5714    9.3597 C.ar    1  lig        -0.0376
     19 C5         24.4753   12.7876    8.9252 C.ar    1  lig         0.0076
     20 C6         25.5791   13.3316    9.7411 C.ar    1  lig         0.0501
     21 C7         23.0233    9.4503    9.9591 C.ar    1  lig        -0.0611
     22 C8         23.8667    9.2407   11.0627 C.ar    1  lig        -0.0598
     23 C9         23.1394   10.5985    9.1633 C.ar    1  lig        -0.0520
     24 C10        24.8553   10.1678   11.4349 C.ar    1  lig        -0.0376
     25 C11        24.1108   11.5208    9.5293 C.ar    1  lig         0.0076
     26 C12        25.0165   11.3343   10.6851 C.ar    1  lig         0.0501
     27 C13        29.7869   12.8295   13.1483 C.2     1  lig         0.3561
     28 C14        29.1697   11.6355   12.4528 C.3     1  lig         0.0508
     29 C15        28.2583   12.0496   11.2811 C.3     1  lig        -0.0247
     30 C16        26.9057   12.6270   11.7367 C.3     1  lig         0.0244
     31 N1         25.8337   12.4381   10.7472 N.pl3   1  lig        -0.3398
     32 O1         29.2888   13.2776   14.2965 O.co2   1  lig        -0.2464
     33 O2         30.7502   13.4115   12.6710 O.co2   1  lig        -0.2464
@<TRIPOS>BOND
     1    27    33    1
     2    27    32    1
     3    27    28    1
     4    28    29    1
     5     9    28    1
     6    10    28    1
     7    29    30    1
     8    11    29    1
     9    12    29    1
    10    30    31    1
    11    13    30    1
    12    14    30    1
    13    26    31    1
    14    20    31    1
    15    24    26   ar
    16    25    26   ar
    17    22    24   ar
    18     8    24    1
    19    23    25   ar
    20    19    25    1
    21    21    23   ar
    22     7    23    1
    23    21    22   ar
    24     5    21    1
    25     6    22    1
    26    19    20   ar
    27    17    19   ar
    28    18    20   ar
    29    16    18   ar
    30     4    18    1
    31    15    17   ar
    32     3    17    1
    33    15    16   ar
    34     1    15    1
    35     2    16    1
@<TRIPOS>SUBSTRUCTURE
     1 lig         1 TEMP              0 ****  ****    0 ROOT


########## Name:		ligand
########## HA_RMSDs:		14.0111
########## HA_RMSDh:		13.9918
########## HA_RMSDm:		10.4706
########## Cluster Size:	1
##########    Grid Score:          -18.594912
##########      Grid_vdw:          -18.587765
##########       Grid_es:           -0.007147
##########    Int_energy:            3.143634

@<TRIPOS>MOLECULE
ligand
 33 35 1 0 0
SMALL
No Charge or Current Charge


@<TRIPOS>ATOM
      1 H1         23.4964   31.1658   18.0239 H       1  lig         0.0618
      2 H2         22.3146   33.2936   17.7137 H       1  lig         0.0618
      3 H3         22.7182   29.0847   16.8932 H       1  lig         0.0624
      4 H4         20.2928   33.4850   16.2997 H       1  lig         0.0638
      5 H5         19.9052   25.9731   14.0631 H       1  lig         0.0618
      6 H6         17.9169   27.0404   13.0856 H       1  lig         0.0618
      7 H7         21.4553   27.2806   15.5105 H       1  lig         0.0624
      8 H8         17.4800   29.4585   13.2876 H       1  lig         0.0638
      9 H9         17.9454   34.4424   11.9302 H       1  lig         0.0379
     10 H10        16.6535   33.4262   12.5078 H       1  lig         0.0379
     11 H11        19.6084   33.4177   13.4183 H       1  lig         0.0288
     12 H12        18.8022   32.1877   12.4703 H       1  lig         0.0288
     13 H13        17.2931   31.6476   14.3835 H       1  lig         0.0492
     14 H14        18.1301   32.8469   15.3668 H       1  lig         0.0492
     15 C1         22.6146   31.1955   17.3900 C.ar    1  lig        -0.0611
     16 C2         21.9319   32.4078   17.2151 C.ar    1  lig        -0.0598
     17 C3         22.1842   30.0218   16.7597 C.ar    1  lig        -0.0520
     18 C4         20.7897   32.5255   16.4146 C.ar    1  lig        -0.0376
     19 C5         21.0430   30.1256   15.9639 C.ar    1  lig         0.0076
     20 C6         20.3004   31.3862   15.7654 C.ar    1  lig         0.0501
     21 C7         19.7497   27.0421   14.1936 C.ar    1  lig        -0.0611
     22 C8         18.6480   27.6584   13.5772 C.ar    1  lig        -0.0598
     23 C9         20.6179   27.7664   15.0223 C.ar    1  lig        -0.0520
     24 C10        18.3653   29.0250   13.7447 C.ar    1  lig        -0.0376
     25 C11        20.3469   29.1183   15.1873 C.ar    1  lig         0.0076
     26 C12        19.1967   29.8015   14.5538 C.ar    1  lig         0.0501
     27 C13        17.2815   34.9644   13.8655 C.2     1  lig         0.3561
     28 C14        17.5764   33.9181   12.8126 C.3     1  lig         0.0508
     29 C15        18.6516   32.9145   13.2727 C.3     1  lig        -0.0247
     30 C16        18.2565   32.1386   14.5425 C.3     1  lig         0.0244
     31 N1         19.2469   31.1226   14.9309 N.pl3   1  lig        -0.3398
     32 O1         16.0761   35.5184   13.9520 O.co2   1  lig        -0.2464
     33 O2         18.1414   35.3277   14.6548 O.co2   1  lig        -0.2464
@<TRIPOS>BOND
     1    27    33    1
     2    27    32    1
     3    27    28    1
     4    28    29    1
     5     9    28    1
     6    10    28    1
     7    29    30    1
     8    11    29    1
     9    12    29    1
    10    30    31    1
    11    13    30    1
    12    14    30    1
    13    26    31    1
    14    20    31    1
    15    24    26   ar
    16    25    26   ar
    17    22    24   ar
    18     8    24    1
    19    23    25   ar
    20    19    25    1
    21    21    23   ar
    22     7    23    1
    23    21    22   ar
    24     5    21    1
    25     6    22    1
    26    19    20   ar
    27    17    19   ar
    28    18    20   ar
    29    16    18   ar
    30     4    18    1
    31    15    17   ar
    32     3    17    1
    33    15    16   ar
    34     1    15    1
    35     2    16    1
@<TRIPOS>SUBSTRUCTURE
     1 lig         1 TEMP              0 ****  ****    0 ROOT


########## Name:		ligand
########## HA_RMSDs:		12.8599
########## HA_RMSDh:		12.8011
########## HA_RMSDm:		8.7526
########## Cluster Size:	1
##########    Grid Score:          -18.556116
##########      Grid_vdw:          -18.562710
##########       Grid_es:            0.006594
##########    Int_energy:            1.636881

@<TRIPOS>MOLECULE
ligand
 33 35 1 0 0
SMALL
No Charge or Current Charge


@<TRIPOS>ATOM
      1 H1         25.8559   12.0886   12.6795 H       1  lig         0.0618
      2 H2         24.6385    9.9595   12.6066 H       1  lig         0.0618
      3 H3         25.7886   13.6760   10.7585 H       1  lig         0.0624
      4 H4         23.3137    9.2650   10.6352 H       1  lig         0.0638
      5 H5         24.6897   15.5962    6.2076 H       1  lig         0.0618
      6 H6         23.3616   14.0916    4.7863 H       1  lig         0.0618
      7 H7         25.3777   14.8891    8.4954 H       1  lig         0.0624
      8 H8         22.4626   11.9478    5.6077 H       1  lig         0.0638
      9 H9         20.0859    8.7949    6.5160 H       1  lig         0.0379
     10 H10        20.4185    7.8655    7.9516 H       1  lig         0.0379
     11 H11        20.6853   10.1838    9.1734 H       1  lig         0.0288
     12 H12        20.5227   10.9123    7.5908 H       1  lig         0.0288
     13 H13        22.5373    9.7196    6.7694 H       1  lig         0.0492
     14 H14        22.7327    8.9573    8.3462 H       1  lig         0.0492
     15 C1         25.2869   11.8330   11.7901 C.ar    1  lig        -0.0611
     16 C2         24.5950   10.6142   11.7410 C.ar    1  lig        -0.0598
     17 C3         25.2554   12.7300   10.7157 C.ar    1  lig        -0.0520
     18 C4         23.8408   10.2152   10.6315 C.ar    1  lig        -0.0376
     19 C5         24.5116   12.3403    9.6015 C.ar    1  lig         0.0076
     20 C6         23.7777   11.0618    9.5187 C.ar    1  lig         0.0501
     21 C7         24.3286   14.6531    6.6128 C.ar    1  lig        -0.0611
     22 C8         23.5148   13.8284    5.8185 C.ar    1  lig        -0.0598
     23 C9         24.7337   14.2564    7.8949 C.ar    1  lig        -0.0520
     24 C10        23.0548   12.5779    6.2657 C.ar    1  lig        -0.0376
     25 C11        24.2780   13.0241    8.3444 C.ar    1  lig         0.0076
     26 C12        23.4194   12.1292    7.5364 C.ar    1  lig         0.0501
     27 C13        18.5668    8.9492    7.9745 C.2     1  lig         0.3561
     28 C14        20.0288    8.8218    7.6048 C.3     1  lig         0.0508
     29 C15        20.8645   10.0137    8.1109 C.3     1  lig        -0.0247
     30 C16        22.3723    9.8583    7.8408 C.3     1  lig         0.0244
     31 N1         23.1631   11.0123    8.2958 N.pl3   1  lig        -0.3398
     32 O1         17.7037    9.5204    7.1402 O.co2   1  lig        -0.2464
     33 O2         18.1468    8.5368    9.0460 O.co2   1  lig        -0.2464
@<TRIPOS>BOND
     1    27    33    1
     2    27    32    1
     3    27    28    1
     4    28    29    1
     5     9    28    1
     6    10    28    1
     7    29    30    1
     8    11    29    1
     9    12    29    1
    10    30    31    1
    11    13    30    1
    12    14    30    1
    13    26    31    1
    14    20    31    1
    15    24    26   ar
    16    25    26   ar
    17    22    24   ar
    18     8    24    1
    19    23    25   ar
    20    19    25    1
    21    21    23   ar
    22     7    23    1
    23    21    22   ar
    24     5    21    1
    25     6    22    1
    26    19    20   ar
    27    17    19   ar
    28    18    20   ar
    29    16    18   ar
    30     4    18    1
    31    15    17   ar
    32     3    17    1
    33    15    16   ar
    34     1    15    1
    35     2    16    1
@<TRIPOS>SUBSTRUCTURE
     1 lig         1 TEMP              0 ****  ****    0 ROOT


########## Name:		ligand
########## HA_RMSDs:		14.6721
########## HA_RMSDh:		14.2424
########## HA_RMSDm:		12.4335
########## Cluster Size:	1
##########    Grid Score:          -18.453932
##########      Grid_vdw:          -18.481150
##########       Grid_es:            0.027219
##########    Int_energy:            2.758548

@<TRIPOS>MOLECULE
ligand
 33 35 1 0 0
SMALL
No Charge or Current Charge


@<TRIPOS>ATOM
      1 H1         22.6181   29.7982    5.5665 H       1  lig         0.0618
      2 H2         20.8548   28.8867    7.0088 H       1  lig         0.0618
      3 H3         25.0243   29.3369    6.0273 H       1  lig         0.0624
      4 H4         21.3612   27.4976    8.9931 H       1  lig         0.0638
      5 H5         29.1788   27.5731    8.3151 H       1  lig         0.0618
      6 H6         28.7238   26.3432   10.3956 H       1  lig         0.0618
      7 H7         27.3077   28.5576    6.9971 H       1  lig         0.0624
      8 H8         26.4350   25.8290   11.1542 H       1  lig         0.0638
      9 H9         21.3957   27.1024   12.0501 H       1  lig         0.0379
     10 H10        21.9790   26.5499   13.5960 H       1  lig         0.0379
     11 H11        24.2120   26.4554   12.7929 H       1  lig         0.0288
     12 H12        24.0150   27.9541   11.9115 H       1  lig         0.0288
     13 H13        22.3712   26.1374   10.5072 H       1  lig         0.0492
     14 H14        23.8234   25.2216   10.9050 H       1  lig         0.0492
     15 C1         22.8949   29.1918    6.4242 C.ar    1  lig        -0.0611
     16 C2         21.8910   28.6742    7.2554 C.ar    1  lig        -0.0598
     17 C3         24.2486   28.9385    6.6760 C.ar    1  lig        -0.0520
     18 C4         22.1685   27.8851    8.3776 C.ar    1  lig        -0.0376
     19 C5         24.5378   28.1579    7.7956 C.ar    1  lig         0.0076
     20 C6         23.5032   27.6042    8.6917 C.ar    1  lig         0.0501
     21 C7         28.1498   27.3848    8.6145 C.ar    1  lig        -0.0611
     22 C8         27.8960   26.6246    9.7682 C.ar    1  lig        -0.0598
     23 C9         27.1041   27.9559    7.8757 C.ar    1  lig        -0.0520
     24 C10        26.5917   26.3853   10.2340 C.ar    1  lig        -0.0376
     25 C11        25.8128   27.7184    8.3280 C.ar    1  lig         0.0076
     26 C12        25.5073   26.9225    9.5381 C.ar    1  lig         0.0501
     27 C13        22.0614   28.6727   13.2950 C.2     1  lig         0.3561
     28 C14        22.1842   27.2518   12.7886 C.3     1  lig         0.0508
     29 C15        23.5447   26.9885   12.1143 C.3     1  lig        -0.0247
     30 C16        23.4257   26.2330   10.7780 C.3     1  lig         0.0244
     31 N1         24.1396   26.8939    9.6746 N.pl3   1  lig        -0.3398
     32 O1         22.8411   29.1120   14.2780 O.co2   1  lig        -0.2464
     33 O2         21.2427   29.4456   12.8187 O.co2   1  lig        -0.2464
@<TRIPOS>BOND
     1    27    33    1
     2    27    32    1
     3    27    28    1
     4    28    29    1
     5     9    28    1
     6    10    28    1
     7    29    30    1
     8    11    29    1
     9    12    29    1
    10    30    31    1
    11    13    30    1
    12    14    30    1
    13    26    31    1
    14    20    31    1
    15    24    26   ar
    16    25    26   ar
    17    22    24   ar
    18     8    24    1
    19    23    25   ar
    20    19    25    1
    21    21    23   ar
    22     7    23    1
    23    21    22   ar
    24     5    21    1
    25     6    22    1
    26    19    20   ar
    27    17    19   ar
    28    18    20   ar
    29    16    18   ar
    30     4    18    1
    31    15    17   ar
    32     3    17    1
    33    15    16   ar
    34     1    15    1
    35     2    16    1
@<TRIPOS>SUBSTRUCTURE
     1 lig         1 TEMP              0 ****  ****    0 ROOT


########## Name:		ligand
########## HA_RMSDs:		5.4160
########## HA_RMSDh:		4.7207
########## HA_RMSDm:		0.6488
########## Cluster Size:	1
##########    Grid Score:          -18.380310
##########      Grid_vdw:          -18.221676
##########       Grid_es:           -0.158635
##########    Int_energy:            9.987394

@<TRIPOS>MOLECULE
ligand
 33 35 1 0 0
SMALL
No Charge or Current Charge


@<TRIPOS>ATOM
      1 H1         17.0075   15.7399   14.5473 H       1  lig         0.0618
      2 H2         18.0247   17.8465   15.2878 H       1  lig         0.0618
      3 H3         16.0531   14.1247   16.1890 H       1  lig         0.0624
      4 H4         18.1825   18.4658   17.6784 H       1  lig         0.0638
      5 H5         14.7245   12.0625   20.6148 H       1  lig         0.0618
      6 H6         15.4267   13.3721   22.5743 H       1  lig         0.0618
      7 H7         15.2638   12.8490   18.3130 H       1  lig         0.0624
      8 H8         16.4740   15.5951   22.3729 H       1  lig         0.0638
      9 H9         21.0420   17.0127   21.1306 H       1  lig         0.0379
     10 H10        19.6640   16.5079   22.0695 H       1  lig         0.0379
     11 H11        19.4851   18.0075   19.3688 H       1  lig         0.0288
     12 H12        19.5007   18.8100   20.9237 H       1  lig         0.0288
     13 H13        17.1988   18.6782   20.2762 H       1  lig         0.0492
     14 H14        17.4365   17.5414   21.6016 H       1  lig         0.0492
     15 C1         17.0490   15.9645   15.6094 C.ar    1  lig        -0.0611
     16 C2         17.6355   17.1642   16.0379 C.ar    1  lig        -0.0598
     17 C3         16.5115   15.0513   16.5243 C.ar    1  lig        -0.0520
     18 C4         17.7259   17.5236   17.3876 C.ar    1  lig        -0.0376
     19 C5         16.6012   15.3961   17.8732 C.ar    1  lig         0.0076
     20 C6         17.2175   16.6485   18.3545 C.ar    1  lig         0.0501
     21 C7         15.1969   13.0324   20.4723 C.ar    1  lig        -0.0611
     22 C8         15.5354   13.8055   21.5952 C.ar    1  lig        -0.0598
     23 C9         15.5106   13.4594   19.1744 C.ar    1  lig        -0.0520
     24 C10        16.1890   15.0445   21.4805 C.ar    1  lig        -0.0376
     25 C11        16.1516   14.6854   19.0544 C.ar    1  lig         0.0076
     26 C12        16.5231   15.5271   20.2139 C.ar    1  lig         0.0501
     27 C13        19.9353   15.4657   20.2137 C.2     1  lig         0.3561
     28 C14        19.9932   16.7232   21.0537 C.3     1  lig         0.0508
     29 C15        19.2083   17.8867   20.4171 C.3     1  lig        -0.0247
     30 C16        17.6819   17.7380   20.5536 C.3     1  lig         0.0244
     31 N1         17.1294   16.6583   19.7211 N.pl3   1  lig        -0.3398
     32 O1         20.7184   15.3250   19.1487 O.co2   1  lig        -0.2464
     33 O2         19.1673   14.5555   20.4895 O.co2   1  lig        -0.2464
@<TRIPOS>BOND
     1    27    33    1
     2    27    32    1
     3    27    28    1
     4    28    29    1
     5     9    28    1
     6    10    28    1
     7    29    30    1
     8    11    29    1
     9    12    29    1
    10    30    31    1
    11    13    30    1
    12    14    30    1
    13    26    31    1
    14    20    31    1
    15    24    26   ar
    16    25    26   ar
    17    22    24   ar
    18     8    24    1
    19    23    25   ar
    20    19    25    1
    21    21    23   ar
    22     7    23    1
    23    21    22   ar
    24     5    21    1
    25     6    22    1
    26    19    20   ar
    27    17    19   ar
    28    18    20   ar
    29    16    18   ar
    30     4    18    1
    31    15    17   ar
    32     3    17    1
    33    15    16   ar
    34     1    15    1
    35     2    16    1
@<TRIPOS>SUBSTRUCTURE
     1 lig         1 TEMP              0 ****  ****    0 ROOT


########## Name:		ligand
########## HA_RMSDs:		12.6086
########## HA_RMSDh:		12.5653
########## HA_RMSDm:		8.7180
########## Cluster Size:	2
##########    Grid Score:          -18.362986
##########      Grid_vdw:          -18.970577
##########       Grid_es:            0.607592
##########    Int_energy:            6.152837

@<TRIPOS>MOLECULE
ligand
 33 35 1 0 0
SMALL
No Charge or Current Charge


@<TRIPOS>ATOM
      1 H1         21.6662   29.4388   16.3398 H       1  lig         0.0618
      2 H2         20.9504   31.6368   15.5171 H       1  lig         0.0618
      3 H3         20.5363   27.3502   15.5810 H       1  lig         0.0624
      4 H4         19.0719   31.9022   13.9282 H       1  lig         0.0638
      5 H5         17.2824   24.2969   13.1946 H       1  lig         0.0618
      6 H6         15.5935   25.4882   11.8618 H       1  lig         0.0618
      7 H7         18.9986   25.5651   14.4805 H       1  lig         0.0624
      8 H8         15.6426   27.9328   11.5448 H       1  lig         0.0638
      9 H9         16.7777   29.5623    9.9310 H       1  lig         0.0379
     10 H10        17.6235   30.7057    8.9246 H       1  lig         0.0379
     11 H11        17.1513   32.1306   10.7628 H       1  lig         0.0288
     12 H12        18.6353   31.4235   11.3623 H       1  lig         0.0288
     13 H13        15.9055   30.2403   12.0109 H       1  lig         0.0492
     14 H14        16.7179   31.4328   13.0224 H       1  lig         0.0492
     15 C1         20.8369   29.4993   15.6406 C.ar    1  lig        -0.0611
     16 C2         20.4198   30.7538   15.1729 C.ar    1  lig        -0.0598
     17 C3         20.2076   28.3214   15.2206 C.ar    1  lig        -0.0520
     18 C4         19.3606   30.9126   14.2717 C.ar    1  lig        -0.0376
     19 C5         19.1464   28.4676   14.3268 C.ar    1  lig         0.0076
     20 C6         18.6814   29.7746   13.8215 C.ar    1  lig         0.0501
     21 C7         17.3391   25.3792   13.0979 C.ar    1  lig        -0.0611
     22 C8         16.4116   26.0475   12.2815 C.ar    1  lig        -0.0598
     23 C9         18.2980   26.0856   13.8374 C.ar    1  lig        -0.0520
     24 C10        16.4020   27.4469   12.1514 C.ar    1  lig        -0.0376
     25 C11        18.2969   27.4683   13.7087 C.ar    1  lig         0.0076
     26 C12        17.3361   28.2063   12.8582 C.ar    1  lig         0.0501
     27 C13        18.8723   29.2961    9.9527 C.2     1  lig         0.3561
     28 C14        17.6609   30.2010    9.8892 C.3     1  lig         0.0508
     29 C15        17.6084   31.1891   11.0706 C.3     1  lig        -0.0247
     30 C16        16.8856   30.6226   12.3065 C.3     1  lig         0.0244
     31 N1         17.6340   29.5438   12.9699 N.pl3   1  lig        -0.3398
     32 O1         18.8106   28.0476    9.5003 O.co2   1  lig        -0.2464
     33 O2         19.9303   29.6874   10.4239 O.co2   1  lig        -0.2464
@<TRIPOS>BOND
     1    27    33    1
     2    27    32    1
     3    27    28    1
     4    28    29    1
     5     9    28    1
     6    10    28    1
     7    29    30    1
     8    11    29    1
     9    12    29    1
    10    30    31    1
    11    13    30    1
    12    14    30    1
    13    26    31    1
    14    20    31    1
    15    24    26   ar
    16    25    26   ar
    17    22    24   ar
    18     8    24    1
    19    23    25   ar
    20    19    25    1
    21    21    23   ar
    22     7    23    1
    23    21    22   ar
    24     5    21    1
    25     6    22    1
    26    19    20   ar
    27    17    19   ar
    28    18    20   ar
    29    16    18   ar
    30     4    18    1
    31    15    17   ar
    32     3    17    1
    33    15    16   ar
    34     1    15    1
    35     2    16    1
@<TRIPOS>SUBSTRUCTURE
     1 lig         1 TEMP              0 ****  ****    0 ROOT


########## Name:		ligand
########## HA_RMSDs:		14.8661
########## HA_RMSDh:		14.8580
########## HA_RMSDm:		8.3094
########## Cluster Size:	1
##########    Grid Score:          -18.326521
##########      Grid_vdw:          -18.580488
##########       Grid_es:            0.253968
##########    Int_energy:            4.621009

@<TRIPOS>MOLECULE
ligand
 33 35 1 0 0
SMALL
No Charge or Current Charge


@<TRIPOS>ATOM
      1 H1         17.2793   20.5791    6.3294 H       1  lig         0.0618
      2 H2         15.8490   18.7989    7.2270 H       1  lig         0.0618
      3 H3         16.2968   22.5756    5.2054 H       1  lig         0.0624
      4 H4         13.3822   18.8718    7.0450 H       1  lig         0.0638
      5 H5         12.8465   25.7300    3.2688 H       1  lig         0.0618
      6 H6         10.5377   24.8972    3.4241 H       1  lig         0.0618
      7 H7         14.7407   24.3646    4.1376 H       1  lig         0.0624
      8 H8          9.9580   22.8229    4.6241 H       1  lig         0.0638
      9 H9         10.1289   18.6597    3.2225 H       1  lig         0.0379
     10 H10        10.6519   20.3058    3.4515 H       1  lig         0.0379
     11 H11        11.6368   18.3207    5.5149 H       1  lig         0.0288
     12 H12         9.8996   18.5205    5.4526 H       1  lig         0.0288
     13 H13        10.9714   20.0410    7.1219 H       1  lig         0.0492
     14 H14        10.0111   20.8823    5.9072 H       1  lig         0.0492
     15 C1         16.2011   20.6616    6.2252 C.ar    1  lig        -0.0611
     16 C2         15.3799   19.6434    6.7306 C.ar    1  lig        -0.0598
     17 C3         15.6581   21.7857    5.5918 C.ar    1  lig        -0.0520
     18 C4         13.9839   19.6783    6.6348 C.ar    1  lig        -0.0376
     19 C5         14.2677   21.8288    5.4851 C.ar    1  lig         0.0076
     20 C6         13.3780   20.7700    6.0021 C.ar    1  lig         0.0501
     21 C7         12.6444   24.8002    3.7968 C.ar    1  lig        -0.0611
     22 C8         11.3170   24.3636    3.9400 C.ar    1  lig        -0.0598
     23 C9         13.7174   24.0310    4.2683 C.ar    1  lig        -0.0520
     24 C10        10.9930   23.1495    4.5696 C.ar    1  lig        -0.0376
     25 C11        13.4033   22.8329    4.8962 C.ar    1  lig         0.0076
     26 C12        12.0174   22.3412    5.0656 C.ar    1  lig         0.0501
     27 C13        12.2240   18.8898    3.0951 C.2     1  lig         0.3561
     28 C14        10.8921   19.2734    3.7027 C.3     1  lig         0.0508
     29 C15        10.8472   19.0136    5.2211 C.3     1  lig        -0.0247
     30 C16        10.9253   20.3013    6.0615 C.3     1  lig         0.0244
     31 N1         12.0878   21.1391    5.7290 N.pl3   1  lig        -0.3398
     32 O1         12.5832   17.6135    2.9991 O.co2   1  lig        -0.2464
     33 O2         13.0006   19.7401    2.6846 O.co2   1  lig        -0.2464
@<TRIPOS>BOND
     1    27    33    1
     2    27    32    1
     3    27    28    1
     4    28    29    1
     5     9    28    1
     6    10    28    1
     7    29    30    1
     8    11    29    1
     9    12    29    1
    10    30    31    1
    11    13    30    1
    12    14    30    1
    13    26    31    1
    14    20    31    1
    15    24    26   ar
    16    25    26   ar
    17    22    24   ar
    18     8    24    1
    19    23    25   ar
    20    19    25    1
    21    21    23   ar
    22     7    23    1
    23    21    22   ar
    24     5    21    1
    25     6    22    1
    26    19    20   ar
    27    17    19   ar
    28    18    20   ar
    29    16    18   ar
    30     4    18    1
    31    15    17   ar
    32     3    17    1
    33    15    16   ar
    34     1    15    1
    35     2    16    1
@<TRIPOS>SUBSTRUCTURE
     1 lig         1 TEMP              0 ****  ****    0 ROOT


########## Name:		ligand
########## HA_RMSDs:		13.8763
########## HA_RMSDh:		13.5924
########## HA_RMSDm:		9.7381
########## Cluster Size:	2
##########    Grid Score:          -18.058208
##########      Grid_vdw:          -18.661863
##########       Grid_es:            0.603655
##########    Int_energy:            1.621822

@<TRIPOS>MOLECULE
ligand
 33 35 1 0 0
SMALL
No Charge or Current Charge


@<TRIPOS>ATOM
      1 H1         19.9818   27.7245   15.6242 H       1  lig         0.0618
      2 H2         18.2553   28.6628   14.1548 H       1  lig         0.0618
      3 H3         22.1362   26.8762   14.7001 H       1  lig         0.0624
      4 H4         18.5413   28.7932   11.7002 H       1  lig         0.0638
      5 H5         25.7060   25.6118   11.3442 H       1  lig         0.0618
      6 H6         25.0521   25.9917    9.0041 H       1  lig         0.0618
      7 H7         24.1260   26.1397   13.1968 H       1  lig         0.0624
      8 H8         22.9401   27.1031    8.3849 H       1  lig         0.0638
      9 H9         19.9239   29.5490    6.8439 H       1  lig         0.0379
     10 H10        18.5455   29.9773    7.8196 H       1  lig         0.0379
     11 H11        20.1847   30.3394    9.7915 H       1  lig         0.0288
     12 H12        21.4845   29.8759    8.7156 H       1  lig         0.0288
     13 H13        20.5471   27.6103    8.4345 H       1  lig         0.0492
     14 H14        19.1773   28.0326    9.4597 H       1  lig         0.0492
     15 C1         20.1591   27.7607   14.5530 C.ar    1  lig        -0.0611
     16 C2         19.1725   28.2898   13.7085 C.ar    1  lig        -0.0598
     17 C3         21.3714   27.2812   14.0427 C.ar    1  lig        -0.0520
     18 C4         19.3275   28.3703   12.3197 C.ar    1  lig        -0.0376
     19 C5         21.5349   27.3508   12.6589 C.ar    1  lig         0.0076
     20 C6         20.5125   27.8971   11.7444 C.ar    1  lig         0.0501
     21 C7         24.7555   26.0930   11.1227 C.ar    1  lig        -0.0611
     22 C8         24.4170   26.3678    9.7873 C.ar    1  lig        -0.0598
     23 C9         23.8664   26.3719   12.1700 C.ar    1  lig        -0.0520
     24 C10        23.1856   26.9443    9.4315 C.ar    1  lig        -0.0376
     25 C11        22.6502   26.9467   11.8252 C.ar    1  lig         0.0076
     26 C12        22.2596   27.2507   10.4302 C.ar    1  lig         0.0501
     27 C13        19.8612   31.6016    7.3353 C.2     1  lig         0.3561
     28 C14        19.6136   30.1532    7.6973 C.3     1  lig         0.0508
     29 C15        20.4254   29.7133    8.9312 C.3     1  lig        -0.0247
     30 C16        20.2397   28.2260    9.2835 C.3     1  lig         0.0244
     31 N1         21.0055   27.8128   10.4696 N.pl3   1  lig        -0.3398
     32 O1         20.8381   31.9336    6.4971 O.co2   1  lig        -0.2464
     33 O2         19.1758   32.4976    7.8064 O.co2   1  lig        -0.2464
@<TRIPOS>BOND
     1    27    33    1
     2    27    32    1
     3    27    28    1
     4    28    29    1
     5     9    28    1
     6    10    28    1
     7    29    30    1
     8    11    29    1
     9    12    29    1
    10    30    31    1
    11    13    30    1
    12    14    30    1
    13    26    31    1
    14    20    31    1
    15    24    26   ar
    16    25    26   ar
    17    22    24   ar
    18     8    24    1
    19    23    25   ar
    20    19    25    1
    21    21    23   ar
    22     7    23    1
    23    21    22   ar
    24     5    21    1
    25     6    22    1
    26    19    20   ar
    27    17    19   ar
    28    18    20   ar
    29    16    18   ar
    30     4    18    1
    31    15    17   ar
    32     3    17    1
    33    15    16   ar
    34     1    15    1
    35     2    16    1
@<TRIPOS>SUBSTRUCTURE
     1 lig         1 TEMP              0 ****  ****    0 ROOT


########## Name:		ligand
########## HA_RMSDs:		14.2928
########## HA_RMSDh:		13.9394
########## HA_RMSDm:		9.2724
########## Cluster Size:	1
##########    Grid Score:          -18.049458
##########      Grid_vdw:          -18.227234
##########       Grid_es:            0.177777
##########    Int_energy:            3.280362

@<TRIPOS>MOLECULE
ligand
 33 35 1 0 0
SMALL
No Charge or Current Charge


@<TRIPOS>ATOM
      1 H1         19.9839   26.7973   14.7649 H       1  lig         0.0618
      2 H2         19.2050   28.6958   13.4197 H       1  lig         0.0618
      3 H3         22.2175   25.7656   14.3629 H       1  lig         0.0624
      4 H4         20.5652   29.6636   11.5929 H       1  lig         0.0638
      5 H5         26.7456   24.8778   12.2860 H       1  lig         0.0618
      6 H6         27.2465   26.3008   10.3438 H       1  lig         0.0618
      7 H7         24.5746   25.1025   13.4876 H       1  lig         0.0624
      8 H8         25.7656   28.1404    9.6353 H       1  lig         0.0638
      9 H9         23.5082   27.6952    8.1146 H       1  lig         0.0379
     10 H10        22.1302   27.8647    7.0621 H       1  lig         0.0379
     11 H11        21.2866   28.6390    9.1904 H       1  lig         0.0288
     12 H12        21.7326   30.1287    8.3880 H       1  lig         0.0288
     13 H13        22.7387   30.5080   10.4266 H       1  lig         0.0492
     14 H14        24.0819   29.7839    9.5450 H       1  lig         0.0492
     15 C1         20.6219   27.1859   13.9761 C.ar    1  lig        -0.0611
     16 C2         20.1782   28.2664   13.2001 C.ar    1  lig        -0.0598
     17 C3         21.8742   26.5998   13.7567 C.ar    1  lig        -0.0520
     18 C4         20.9424   28.8219   12.1673 C.ar    1  lig        -0.0376
     19 C5         22.6426   27.1413   12.7258 C.ar    1  lig         0.0076
     20 C6         22.2001   28.2743   11.8889 C.ar    1  lig         0.0501
     21 C7         26.0516   25.6672   12.0045 C.ar    1  lig        -0.0611
     22 C8         26.3746   26.5196   10.9356 C.ar    1  lig        -0.0598
     23 C9         24.8259   25.7759   12.6759 C.ar    1  lig        -0.0520
     24 C10        25.5011   27.5278   10.4929 C.ar    1  lig        -0.0376
     25 C11        23.9608   26.7737   12.2466 C.ar    1  lig         0.0076
     26 C12        24.2671   27.6901   11.1252 C.ar    1  lig         0.0501
     27 C13        23.6712   29.3330    6.7918 C.2     1  lig         0.3561
     28 C14        22.8344   28.4297    7.6716 C.3     1  lig         0.0508
     29 C15        22.1374   29.2040    8.8072 C.3     1  lig        -0.0247
     30 C16        23.0880   29.5851    9.9570 C.3     1  lig         0.0244
     31 N1         23.1962   28.5411   10.9877 N.pl3   1  lig        -0.3398
     32 O1         24.9720   29.4857    7.0193 O.co2   1  lig        -0.2464
     33 O2         23.1730   29.9453    5.8583 O.co2   1  lig        -0.2464
@<TRIPOS>BOND
     1    27    33    1
     2    27    32    1
     3    27    28    1
     4    28    29    1
     5     9    28    1
     6    10    28    1
     7    29    30    1
     8    11    29    1
     9    12    29    1
    10    30    31    1
    11    13    30    1
    12    14    30    1
    13    26    31    1
    14    20    31    1
    15    24    26   ar
    16    25    26   ar
    17    22    24   ar
    18     8    24    1
    19    23    25   ar
    20    19    25    1
    21    21    23   ar
    22     7    23    1
    23    21    22   ar
    24     5    21    1
    25     6    22    1
    26    19    20   ar
    27    17    19   ar
    28    18    20   ar
    29    16    18   ar
    30     4    18    1
    31    15    17   ar
    32     3    17    1
    33    15    16   ar
    34     1    15    1
    35     2    16    1
@<TRIPOS>SUBSTRUCTURE
     1 lig         1 TEMP              0 ****  ****    0 ROOT


########## Name:		ligand
########## HA_RMSDs:		17.0884
########## HA_RMSDh:		16.6754
########## HA_RMSDm:		11.1787
########## Cluster Size:	1
##########    Grid Score:          -18.027391
##########      Grid_vdw:          -18.234871
##########       Grid_es:            0.207479
##########    Int_energy:            1.872343

@<TRIPOS>MOLECULE
ligand
 33 35 1 0 0
SMALL
No Charge or Current Charge


@<TRIPOS>ATOM
      1 H1         22.2069   28.0204    6.7092 H       1  lig         0.0618
      2 H2         24.0423   28.7774    5.2673 H       1  lig         0.0618
      3 H3         22.6593   26.9849    8.9313 H       1  lig         0.0624
      4 H4         26.4172   28.5336    5.9185 H       1  lig         0.0638
      5 H5         25.2134   25.1376   12.8898 H       1  lig         0.0618
      6 H6         27.6560   25.1836   12.6081 H       1  lig         0.0618
      7 H7         23.7193   25.9784   11.0820 H       1  lig         0.0624
      8 H8         28.7437   26.2486   10.6686 H       1  lig         0.0638
      9 H9         31.1705   28.2182    8.1413 H       1  lig         0.0379
     10 H10        30.4908   29.1854    6.8615 H       1  lig         0.0379
     11 H11        28.4959   29.6708    8.4705 H       1  lig         0.0288
     12 H12        29.2636   28.5934    9.6159 H       1  lig         0.0288
     13 H13        29.0584   26.6794    8.0767 H       1  lig         0.0492
     14 H14        28.3494   27.7214    6.8451 H       1  lig         0.0492
     15 C1         23.2324   27.8921    7.0441 C.ar    1  lig        -0.0611
     16 C2         24.2849   28.3169    6.2206 C.ar    1  lig        -0.0598
     17 C3         23.4772   27.3088    8.2931 C.ar    1  lig        -0.0520
     18 C4         25.6306   28.1858    6.5826 C.ar    1  lig        -0.0376
     19 C5         24.8151   27.1674    8.6622 C.ar    1  lig         0.0076
     20 C6         25.9440   27.5998    7.8144 C.ar    1  lig         0.0501
     21 C7         25.6443   25.6067   12.0075 C.ar    1  lig        -0.0611
     22 C8         27.0412   25.6892   11.8839 C.ar    1  lig        -0.0598
     23 C9         24.7962   26.0626   10.9886 C.ar    1  lig        -0.0520
     24 C10        27.6600   26.2404   10.7487 C.ar    1  lig        -0.0376
     25 C11        25.4018   26.6132    9.8668 C.ar    1  lig         0.0076
     26 C12        26.8691   26.7173    9.7019 C.ar    1  lig         0.0501
     27 C13        31.1830   30.2861    8.5683 C.2     1  lig         0.3561
     28 C14        30.5244   29.0746    7.9447 C.3     1  lig         0.0508
     29 C15        29.1353   28.7903    8.5484 C.3     1  lig        -0.0247
     30 C16        28.4391   27.5669    7.9245 C.3     1  lig         0.0244
     31 N1         27.1030   27.3134    8.4854 N.pl3   1  lig        -0.3398
     32 O1         31.9548   30.1602    9.6433 O.co2   1  lig        -0.2464
     33 O2         31.0180   31.4050    8.1043 O.co2   1  lig        -0.2464
@<TRIPOS>BOND
     1    27    33    1
     2    27    32    1
     3    27    28    1
     4    28    29    1
     5     9    28    1
     6    10    28    1
     7    29    30    1
     8    11    29    1
     9    12    29    1
    10    30    31    1
    11    13    30    1
    12    14    30    1
    13    26    31    1
    14    20    31    1
    15    24    26   ar
    16    25    26   ar
    17    22    24   ar
    18     8    24    1
    19    23    25   ar
    20    19    25    1
    21    21    23   ar
    22     7    23    1
    23    21    22   ar
    24     5    21    1
    25     6    22    1
    26    19    20   ar
    27    17    19   ar
    28    18    20   ar
    29    16    18   ar
    30     4    18    1
    31    15    17   ar
    32     3    17    1
    33    15    16   ar
    34     1    15    1
    35     2    16    1
@<TRIPOS>SUBSTRUCTURE
     1 lig         1 TEMP              0 ****  ****    0 ROOT


########## Name:		ligand
########## HA_RMSDs:		15.2874
########## HA_RMSDh:		14.9759
########## HA_RMSDm:		8.9215
########## Cluster Size:	2
##########    Grid Score:          -17.992626
##########      Grid_vdw:          -19.025696
##########       Grid_es:            1.033069
##########    Int_energy:            3.350959

@<TRIPOS>MOLECULE
ligand
 33 35 1 0 0
SMALL
No Charge or Current Charge


@<TRIPOS>ATOM
      1 H1         11.3304   17.3634    7.2816 H       1  lig         0.0618
      2 H2          9.5667   18.9005    6.5420 H       1  lig         0.0618
      3 H3         13.7362   18.0011    7.1394 H       1  lig         0.0624
      4 H4         10.0724   21.1321    5.5998 H       1  lig         0.0638
      5 H5         17.8898   20.7143    6.1436 H       1  lig         0.0618
      6 H6         17.4344   22.8613    5.0342 H       1  lig         0.0618
      7 H7         16.0192   19.1784    6.7347 H       1  lig         0.0624
      8 H8         15.1452   23.6981    4.6620 H       1  lig         0.0638
      9 H9         11.8148   20.9906    2.9921 H       1  lig         0.0379
     10 H10        10.2968   21.8422    3.0680 H       1  lig         0.0379
     11 H11        11.6702   24.0447    2.8345 H       1  lig         0.0288
     12 H12        13.1128   23.0546    2.8568 H       1  lig         0.0288
     13 H13        11.1184   23.1731    5.1595 H       1  lig         0.0492
     14 H14        12.6278   24.0788    5.0777 H       1  lig         0.0492
     15 C1         11.6069   18.3332    6.8776 C.ar    1  lig        -0.0611
     16 C2         10.6028   19.2124    6.4473 C.ar    1  lig        -0.0598
     17 C3         12.9604   18.6826    6.8005 C.ar    1  lig        -0.0520
     18 C4         10.8799   20.4775    5.9162 C.ar    1  lig        -0.0376
     19 C5         13.2492   19.9390    6.2673 C.ar    1  lig         0.0076
     20 C6         12.2144   20.8834    5.8011 C.ar    1  lig         0.0501
     21 C7         16.8606   21.0321    5.9888 C.ar    1  lig        -0.0611
     22 C8         16.6065   22.2889    5.4151 C.ar    1  lig        -0.0598
     23 C9         15.8153   20.1549    6.3099 C.ar    1  lig        -0.0520
     24 C10        15.3022   22.7381    5.1461 C.ar    1  lig        -0.0376
     25 C11        14.5240   20.5953    6.0514 C.ar    1  lig         0.0076
     26 C12        14.2181   21.9123    5.4488 C.ar    1  lig         0.0501
     27 C13        11.2739   21.8868    1.1583 C.2     1  lig         0.3561
     28 C14        11.3095   21.9023    2.6711 C.3     1  lig         0.0508
     29 C15        12.0850   23.1139    3.2240 C.3     1  lig        -0.0247
     30 C16        12.1363   23.1536    4.7623 C.3     1  lig         0.0244
     31 N1         12.8504   22.0079    5.3467 N.pl3   1  lig        -0.3398
     32 O1         12.2274   21.2737    0.4638 O.co2   1  lig        -0.2464
     33 O2         10.3750   22.4392    0.5408 O.co2   1  lig        -0.2464
@<TRIPOS>BOND
     1    27    33    1
     2    27    32    1
     3    27    28    1
     4    28    29    1
     5     9    28    1
     6    10    28    1
     7    29    30    1
     8    11    29    1
     9    12    29    1
    10    30    31    1
    11    13    30    1
    12    14    30    1
    13    26    31    1
    14    20    31    1
    15    24    26   ar
    16    25    26   ar
    17    22    24   ar
    18     8    24    1
    19    23    25   ar
    20    19    25    1
    21    21    23   ar
    22     7    23    1
    23    21    22   ar
    24     5    21    1
    25     6    22    1
    26    19    20   ar
    27    17    19   ar
    28    18    20   ar
    29    16    18   ar
    30     4    18    1
    31    15    17   ar
    32     3    17    1
    33    15    16   ar
    34     1    15    1
    35     2    16    1
@<TRIPOS>SUBSTRUCTURE
     1 lig         1 TEMP              0 ****  ****    0 ROOT


########## Name:		ligand
########## HA_RMSDs:		13.7643
########## HA_RMSDh:		13.5171
########## HA_RMSDm:		9.7149
########## Cluster Size:	1
##########    Grid Score:          -17.905256
##########      Grid_vdw:          -17.068075
##########       Grid_es:           -0.837181
##########    Int_energy:            2.929372

@<TRIPOS>MOLECULE
ligand
 33 35 1 0 0
SMALL
No Charge or Current Charge


@<TRIPOS>ATOM
      1 H1         29.9867   15.9449    7.2087 H       1  lig         0.0618
      2 H2         28.2526   16.3283    5.5156 H       1  lig         0.0618
      3 H3         29.4942   14.6593    9.2871 H       1  lig         0.0624
      4 H4         25.9387   15.4937    5.7857 H       1  lig         0.0638
      5 H5         26.9147   12.0403   12.7644 H       1  lig         0.0618
      6 H6         24.5255   11.7786   12.2440 H       1  lig         0.0618
      7 H7         28.4110   13.3000   11.2212 H       1  lig         0.0624
      8 H8         23.5473   12.5291   10.1088 H       1  lig         0.0638
      9 H9         22.3316   12.1121    5.0334 H       1  lig         0.0379
     10 H10        21.5339   12.9198    6.3550 H       1  lig         0.0379
     11 H11        24.5736   12.8608    5.7774 H       1  lig         0.0288
     12 H12        23.7445   11.9579    7.0261 H       1  lig         0.0288
     13 H13        23.1102   14.0167    8.2146 H       1  lig         0.0492
     14 H14        23.8405   15.0004    6.9480 H       1  lig         0.0492
     15 C1         28.9868   15.5543    7.3755 C.ar    1  lig        -0.0611
     16 C2         27.9906   15.7767    6.4139 C.ar    1  lig        -0.0598
     17 C3         28.7189   14.8344    8.5459 C.ar    1  lig        -0.0520
     18 C4         26.6804   15.3055    6.5572 C.ar    1  lig        -0.0376
     19 C5         27.4146   14.3647    8.7026 C.ar    1  lig         0.0076
     20 C6         26.3439   14.5878    7.7108 C.ar    1  lig         0.0501
     21 C7         26.5286   12.4024   11.8138 C.ar    1  lig        -0.0611
     22 C8         25.1773   12.1909   11.4934 C.ar    1  lig        -0.0598
     23 C9         27.3739   13.1237   10.9591 C.ar    1  lig        -0.0520
     24 C10        24.6064   12.6743   10.3036 C.ar    1  lig        -0.0376
     25 C11        26.8168   13.5992    9.7793 C.ar    1  lig         0.0076
     26 C12        25.3984   13.3954    9.4082 C.ar    1  lig         0.0501
     27 C13        22.3112   14.2137    4.8301 C.2     1  lig         0.3561
     28 C14        22.3995   12.9757    5.6960 C.3     1  lig         0.0508
     29 C15        23.7306   12.8981    6.4688 C.3     1  lig        -0.0247
     30 C16        23.9167   14.0461    7.4778 C.3     1  lig         0.0244
     31 N1         25.2057   13.9915    8.1845 N.pl3   1  lig        -0.3398
     32 O1         22.6296   14.1633    3.5404 O.co2   1  lig        -0.2464
     33 O2         21.9518   15.2861    5.2941 O.co2   1  lig        -0.2464
@<TRIPOS>BOND
     1    27    33    1
     2    27    32    1
     3    27    28    1
     4    28    29    1
     5     9    28    1
     6    10    28    1
     7    29    30    1
     8    11    29    1
     9    12    29    1
    10    30    31    1
    11    13    30    1
    12    14    30    1
    13    26    31    1
    14    20    31    1
    15    24    26   ar
    16    25    26   ar
    17    22    24   ar
    18     8    24    1
    19    23    25   ar
    20    19    25    1
    21    21    23   ar
    22     7    23    1
    23    21    22   ar
    24     5    21    1
    25     6    22    1
    26    19    20   ar
    27    17    19   ar
    28    18    20   ar
    29    16    18   ar
    30     4    18    1
    31    15    17   ar
    32     3    17    1
    33    15    16   ar
    34     1    15    1
    35     2    16    1
@<TRIPOS>SUBSTRUCTURE
     1 lig         1 TEMP              0 ****  ****    0 ROOT


########## Name:		ligand
########## HA_RMSDs:		14.3547
########## HA_RMSDh:		14.2098
########## HA_RMSDm:		10.2452
########## Cluster Size:	1
##########    Grid Score:          -17.894474
##########      Grid_vdw:          -17.595139
##########       Grid_es:           -0.299335
##########    Int_energy:            3.886316

@<TRIPOS>MOLECULE
ligand
 33 35 1 0 0
SMALL
No Charge or Current Charge


@<TRIPOS>ATOM
      1 H1         15.6527   27.0026   11.2164 H       1  lig         0.0618
      2 H2         18.1034   27.0602   11.3242 H       1  lig         0.0618
      3 H3         14.2795   28.8629   12.1484 H       1  lig         0.0624
      4 H4         19.3333   28.9326   12.3754 H       1  lig         0.0638
      5 H5         13.0889   33.2034   14.4608 H       1  lig         0.0618
      6 H6         15.0304   34.4228   15.3505 H       1  lig         0.0618
      7 H7         13.3962   31.0281   13.2856 H       1  lig         0.0624
      8 H8         17.3503   33.6964   14.9389 H       1  lig         0.0638
      9 H9         21.4391   32.5013   14.9081 H       1  lig         0.0379
     10 H10        21.1433   32.4108   16.6227 H       1  lig         0.0379
     11 H11        18.8975   32.3700   15.8320 H       1  lig         0.0288
     12 H12        19.2429   30.6551   15.7914 H       1  lig         0.0288
     13 H13        19.9185   30.8354   13.3774 H       1  lig         0.0492
     14 H14        19.4505   32.5342   13.4045 H       1  lig         0.0492
     15 C1         16.1434   27.8500   11.6870 C.ar    1  lig        -0.0611
     16 C2         17.5435   27.8842   11.7570 C.ar    1  lig        -0.0598
     17 C3         15.3643   28.8898   12.2085 C.ar    1  lig        -0.0520
     18 C4         18.2471   28.9408   12.3468 C.ar    1  lig        -0.0376
     19 C5         16.0545   29.9458   12.8043 C.ar    1  lig         0.0076
     20 C6         17.5267   30.0068   12.8978 C.ar    1  lig         0.0501
     21 C7         14.0930   32.8330   14.2641 C.ar    1  lig        -0.0611
     22 C8         15.2001   33.5691   14.7176 C.ar    1  lig        -0.0598
     23 C9         14.2556   31.6005   13.6161 C.ar    1  lig        -0.0520
     24 C10        16.5202   33.1218   14.5368 C.ar    1  lig        -0.0376
     25 C11        15.5579   31.1559   13.4298 C.ar    1  lig         0.0076
     26 C12        16.7481   31.9042   13.8932 C.ar    1  lig         0.0501
     27 C13        21.8179   30.5873   15.7155 C.2     1  lig         0.3561
     28 C14        21.0126   31.8682   15.6872 C.3     1  lig         0.0508
     29 C15        19.5283   31.6169   15.3576 C.3     1  lig        -0.0247
     30 C16        19.2424   31.5549   13.8459 C.3     1  lig         0.0244
     31 N1         17.8561   31.1735   13.5349 N.pl3   1  lig        -0.3398
     32 O1         22.9681   30.4947   15.0553 O.co2   1  lig        -0.2464
     33 O2         21.4300   29.6096   16.3385 O.co2   1  lig        -0.2464
@<TRIPOS>BOND
     1    27    33    1
     2    27    32    1
     3    27    28    1
     4    28    29    1
     5     9    28    1
     6    10    28    1
     7    29    30    1
     8    11    29    1
     9    12    29    1
    10    30    31    1
    11    13    30    1
    12    14    30    1
    13    26    31    1
    14    20    31    1
    15    24    26   ar
    16    25    26   ar
    17    22    24   ar
    18     8    24    1
    19    23    25   ar
    20    19    25    1
    21    21    23   ar
    22     7    23    1
    23    21    22   ar
    24     5    21    1
    25     6    22    1
    26    19    20   ar
    27    17    19   ar
    28    18    20   ar
    29    16    18   ar
    30     4    18    1
    31    15    17   ar
    32     3    17    1
    33    15    16   ar
    34     1    15    1
    35     2    16    1
@<TRIPOS>SUBSTRUCTURE
     1 lig         1 TEMP              0 ****  ****    0 ROOT


########## Name:		ligand
########## HA_RMSDs:		14.0554
########## HA_RMSDh:		14.0392
########## HA_RMSDm:		10.3075
########## Cluster Size:	1
##########    Grid Score:          -17.887794
##########      Grid_vdw:          -17.771101
##########       Grid_es:           -0.116693
##########    Int_energy:            3.910158

@<TRIPOS>MOLECULE
ligand
 33 35 1 0 0
SMALL
No Charge or Current Charge


@<TRIPOS>ATOM
      1 H1         23.5090   31.0111   17.7565 H       1  lig         0.0618
      2 H2         22.3878   33.1622   17.3877 H       1  lig         0.0618
      3 H3         22.6525   28.9172   16.7093 H       1  lig         0.0624
      4 H4         20.3530   33.3667   15.9944 H       1  lig         0.0638
      5 H5         19.7073   25.7977   14.0261 H       1  lig         0.0618
      6 H6         17.7386   26.8912   13.0379 H       1  lig         0.0618
      7 H7         21.3164   27.1060   15.4068 H       1  lig         0.0624
      8 H8         17.3778   29.3270   13.1612 H       1  lig         0.0638
      9 H9         20.1277   33.8053   13.4199 H       1  lig         0.0379
     10 H10        20.6643   32.3001   12.7257 H       1  lig         0.0379
     11 H11        18.2496   31.7428   12.1557 H       1  lig         0.0288
     12 H12        17.7722   33.3394   12.6894 H       1  lig         0.0288
     13 H13        17.2427   31.6144   14.3965 H       1  lig         0.0492
     14 H14        18.3207   32.8703   15.0014 H       1  lig         0.0492
     15 C1         22.6198   31.0459   17.1335 C.ar    1  lig        -0.0611
     16 C2         21.9715   32.2719   16.9253 C.ar    1  lig        -0.0598
     17 C3         22.1453   29.8650   16.5502 C.ar    1  lig        -0.0520
     18 C4         20.8223   32.3969   16.1362 C.ar    1  lig        -0.0376
     19 C5         20.9966   29.9763   15.7661 C.ar    1  lig         0.0076
     20 C6         20.2897   31.2515   15.5335 C.ar    1  lig         0.0501
     21 C7         19.5860   26.8748   14.1213 C.ar    1  lig        -0.0611
     22 C8         18.4949   27.5030   13.4982 C.ar    1  lig        -0.0598
     23 C9         20.4873   27.6002   14.9129 C.ar    1  lig        -0.0520
     24 C10        18.2560   28.8825   13.6216 C.ar    1  lig        -0.0376
     25 C11        20.2596   28.9647   15.0342 C.ar    1  lig         0.0076
     26 C12        19.1217   29.6606   14.3923 C.ar    1  lig         0.0501
     27 C13        20.0327   33.7841   11.3106 C.2     1  lig         0.3561
     28 C14        19.9034   33.0751   12.6413 C.3     1  lig         0.0508
     29 C15        18.4815   32.5289   12.8756 C.3     1  lig        -0.0247
     30 C16        18.2525   32.0236   14.3118 C.3     1  lig         0.0244
     31 N1         19.2171   30.9918   14.7225 N.pl3   1  lig        -0.3398
     32 O1         21.2269   33.9830   10.7614 O.co2   1  lig        -0.2464
     33 O2         19.0477   34.1938   10.7136 O.co2   1  lig        -0.2464
@<TRIPOS>BOND
     1    27    33    1
     2    27    32    1
     3    27    28    1
     4    28    29    1
     5     9    28    1
     6    10    28    1
     7    29    30    1
     8    11    29    1
     9    12    29    1
    10    30    31    1
    11    13    30    1
    12    14    30    1
    13    26    31    1
    14    20    31    1
    15    24    26   ar
    16    25    26   ar
    17    22    24   ar
    18     8    24    1
    19    23    25   ar
    20    19    25    1
    21    21    23   ar
    22     7    23    1
    23    21    22   ar
    24     5    21    1
    25     6    22    1
    26    19    20   ar
    27    17    19   ar
    28    18    20   ar
    29    16    18   ar
    30     4    18    1
    31    15    17   ar
    32     3    17    1
    33    15    16   ar
    34     1    15    1
    35     2    16    1
@<TRIPOS>SUBSTRUCTURE
     1 lig         1 TEMP              0 ****  ****    0 ROOT


########## Name:		ligand
########## HA_RMSDs:		14.8824
########## HA_RMSDh:		14.7851
########## HA_RMSDm:		11.6214
########## Cluster Size:	1
##########    Grid Score:          -17.885284
##########      Grid_vdw:          -17.580898
##########       Grid_es:           -0.304386
##########    Int_energy:            3.378890

@<TRIPOS>MOLECULE
ligand
 33 35 1 0 0
SMALL
No Charge or Current Charge


@<TRIPOS>ATOM
      1 H1         26.5123   32.2976   16.1283 H       1  lig         0.0618
      2 H2         28.1251   31.6795   14.3855 H       1  lig         0.0618
      3 H3         24.2292   31.2981   16.1818 H       1  lig         0.0624
      4 H4         27.5731   30.0693   12.5894 H       1  lig         0.0638
      5 H5         20.2182   28.5184   14.8437 H       1  lig         0.0618
      6 H6         20.5303   27.2620   12.7527 H       1  lig         0.0618
      7 H7         22.0371   29.9770   15.7220 H       1  lig         0.0624
      8 H8         22.6870   27.1948   11.5597 H       1  lig         0.0638
      9 H9         27.4974   25.4495   10.6093 H       1  lig         0.0379
     10 H10        26.2587   26.1296    9.5902 H       1  lig         0.0379
     11 H11        27.1849   27.2623   12.3189 H       1  lig         0.0288
     12 H12        25.7625   26.2732   12.0726 H       1  lig         0.0288
     13 H13        24.7540   27.9969   10.5937 H       1  lig         0.0492
     14 H14        26.1683   29.0223   10.8258 H       1  lig         0.0492
     15 C1         26.2197   31.5833   15.3639 C.ar    1  lig        -0.0611
     16 C2         27.1357   31.2321   14.3618 C.ar    1  lig        -0.0598
     17 C3         24.9353   31.0277   15.4012 C.ar    1  lig        -0.0520
     18 C4         26.8328   30.3199   13.3443 C.ar    1  lig        -0.0376
     19 C5         24.6198   30.1215   14.3884 C.ar    1  lig         0.0076
     20 C6         25.5607   29.7367   13.3176 C.ar    1  lig         0.0501
     21 C7         21.1862   28.5330   14.3468 C.ar    1  lig        -0.0611
     22 C8         21.3783   27.7605   13.1893 C.ar    1  lig        -0.0598
     23 C9         22.1983   29.3687   14.8391 C.ar    1  lig        -0.0520
     24 C10        22.5887   27.7720   12.4751 C.ar    1  lig        -0.0376
     25 C11        23.3985   29.3802   14.1407 C.ar    1  lig         0.0076
     26 C12        23.6373   28.5798   12.9186 C.ar    1  lig         0.0501
     27 C13        28.0737   27.2681    9.7044 C.2     1  lig         0.3561
     28 C14        27.0147   26.3872   10.3310 C.3     1  lig         0.0508
     29 C15        26.4041   27.0194   11.5968 C.3     1  lig        -0.0247
     30 C16        25.5429   28.2613   11.3022 C.3     1  lig         0.0244
     31 N1         24.9240   28.8348   12.5072 N.pl3   1  lig        -0.3398
     32 O1         28.5113   27.0303    8.4718 O.co2   1  lig        -0.2464
     33 O2         28.5540   28.2121   10.3150 O.co2   1  lig        -0.2464
@<TRIPOS>BOND
     1    27    33    1
     2    27    32    1
     3    27    28    1
     4    28    29    1
     5     9    28    1
     6    10    28    1
     7    29    30    1
     8    11    29    1
     9    12    29    1
    10    30    31    1
    11    13    30    1
    12    14    30    1
    13    26    31    1
    14    20    31    1
    15    24    26   ar
    16    25    26   ar
    17    22    24   ar
    18     8    24    1
    19    23    25   ar
    20    19    25    1
    21    21    23   ar
    22     7    23    1
    23    21    22   ar
    24     5    21    1
    25     6    22    1
    26    19    20   ar
    27    17    19   ar
    28    18    20   ar
    29    16    18   ar
    30     4    18    1
    31    15    17   ar
    32     3    17    1
    33    15    16   ar
    34     1    15    1
    35     2    16    1
@<TRIPOS>SUBSTRUCTURE
     1 lig         1 TEMP              0 ****  ****    0 ROOT


########## Name:		ligand
########## HA_RMSDs:		14.1005
########## HA_RMSDh:		13.9813
########## HA_RMSDm:		9.5976
########## Cluster Size:	1
##########    Grid Score:          -17.801193
##########      Grid_vdw:          -18.226934
##########       Grid_es:            0.425742
##########    Int_energy:            1.667159

@<TRIPOS>MOLECULE
ligand
 33 35 1 0 0
SMALL
No Charge or Current Charge


@<TRIPOS>ATOM
      1 H1         26.4841   25.2718   12.0573 H       1  lig         0.0618
      2 H2         26.5615   26.1796    9.7790 H       1  lig         0.0618
      3 H3         24.4610   25.5528   13.4866 H       1  lig         0.0624
      4 H4         24.6688   27.4332    8.7943 H       1  lig         0.0638
      5 H5         19.8461   27.0044   14.9700 H       1  lig         0.0618
      6 H6         18.6605   28.3912   13.3210 H       1  lig         0.0618
      7 H7         22.1434   26.1659   14.4939 H       1  lig         0.0624
      8 H8         19.5612   28.8268   11.0676 H       1  lig         0.0638
      9 H9         22.5997   30.2887    6.9917 H       1  lig         0.0379
     10 H10        21.0308   30.7774    7.5706 H       1  lig         0.0379
     11 H11        22.0027   30.5833    9.9800 H       1  lig         0.0288
     12 H12        23.4928   30.0276    9.2503 H       1  lig         0.0288
     13 H13        22.3509   28.0530    8.2769 H       1  lig         0.0492
     14 H14        20.8254   28.5819    8.9830 H       1  lig         0.0492
     15 C1         25.6242   25.8124   11.6721 C.ar    1  lig        -0.0611
     16 C2         25.6662   26.3390   10.3730 C.ar    1  lig        -0.0598
     17 C3         24.4927   25.9662   12.4820 C.ar    1  lig        -0.0520
     18 C4         24.5991   27.0463    9.8073 C.ar    1  lig        -0.0376
     19 C5         23.4247   26.6748   11.9309 C.ar    1  lig         0.0076
     20 C6         23.4420   27.2453   10.5692 C.ar    1  lig         0.0501
     21 C7         20.2935   27.1797   13.9937 C.ar    1  lig        -0.0611
     22 C8         19.5823   27.9168   13.0322 C.ar    1  lig        -0.0598
     23 C9         21.5925   26.7177   13.7405 C.ar    1  lig        -0.0520
     24 C10        20.1231   28.2175   11.7703 C.ar    1  lig        -0.0376
     25 C11        22.1302   27.0071   12.4933 C.ar    1  lig         0.0076
     26 C12        21.4109   27.7799   11.4558 C.ar    1  lig         0.0501
     27 C13        22.5934   32.2233    7.8377 C.2     1  lig         0.3561
     28 C14        22.0926   30.7954    7.8136 C.3     1  lig         0.0508
     29 C15        22.4075   30.0446    9.1221 C.3     1  lig        -0.0247
     30 C16        21.9106   28.5873    9.1225 C.3     1  lig         0.0244
     31 N1         22.2385   27.8650   10.3613 N.pl3   1  lig        -0.3398
     32 O1         23.8191   32.5192    7.4165 O.co2   1  lig        -0.2464
     33 O2         21.8887   33.1342    8.2479 O.co2   1  lig        -0.2464
@<TRIPOS>BOND
     1    27    33    1
     2    27    32    1
     3    27    28    1
     4    28    29    1
     5     9    28    1
     6    10    28    1
     7    29    30    1
     8    11    29    1
     9    12    29    1
    10    30    31    1
    11    13    30    1
    12    14    30    1
    13    26    31    1
    14    20    31    1
    15    24    26   ar
    16    25    26   ar
    17    22    24   ar
    18     8    24    1
    19    23    25   ar
    20    19    25    1
    21    21    23   ar
    22     7    23    1
    23    21    22   ar
    24     5    21    1
    25     6    22    1
    26    19    20   ar
    27    17    19   ar
    28    18    20   ar
    29    16    18   ar
    30     4    18    1
    31    15    17   ar
    32     3    17    1
    33    15    16   ar
    34     1    15    1
    35     2    16    1
@<TRIPOS>SUBSTRUCTURE
     1 lig         1 TEMP              0 ****  ****    0 ROOT


########## Name:		ligand
########## HA_RMSDs:		14.9690
########## HA_RMSDh:		14.5672
########## HA_RMSDm:		12.0415
########## Cluster Size:	1
##########    Grid Score:          -17.777948
##########      Grid_vdw:          -17.883589
##########       Grid_es:            0.105639
##########    Int_energy:            6.646340

@<TRIPOS>MOLECULE
ligand
 33 35 1 0 0
SMALL
No Charge or Current Charge


@<TRIPOS>ATOM
      1 H1         25.5440   28.9850    5.0642 H       1  lig         0.0618
      2 H2         23.1161   28.9736    5.4188 H       1  lig         0.0618
      3 H3         27.0985   28.0476    6.7729 H       1  lig         0.0624
      4 H4         22.0887   28.0664    7.4791 H       1  lig         0.0638
      5 H5         28.7312   25.9181   11.0630 H       1  lig         0.0618
      6 H6         26.9413   25.4350   12.6788 H       1  lig         0.0618
      7 H7         28.1999   26.9791    8.8722 H       1  lig         0.0624
      8 H8         24.5555   25.7523   12.1436 H       1  lig         0.0638
      9 H9         21.5624   29.1719    9.7078 H       1  lig         0.0379
     10 H10        21.0678   29.7516   11.2745 H       1  lig         0.0379
     11 H11        21.3660   27.5152   11.9375 H       1  lig         0.0288
     12 H12        23.0697   27.9142   11.9251 H       1  lig         0.0288
     13 H13        21.7000   26.9109    9.4055 H       1  lig         0.0492
     14 H14        22.3603   25.8120   10.6146 H       1  lig         0.0492
     15 C1         25.1444   28.5722    5.9862 C.ar    1  lig        -0.0611
     16 C2         23.7579   28.5696    6.1963 C.ar    1  lig        -0.0598
     17 C3         26.0247   28.0487    6.9406 C.ar    1  lig        -0.0520
     18 C4         23.1684   28.0556    7.3571 C.ar    1  lig        -0.0376
     19 C5         25.4490   27.5388    8.1046 C.ar    1  lig         0.0076
     20 C6         23.9942   27.5276    8.3563 C.ar    1  lig         0.0501
     21 C7         27.6936   26.0898   10.7836 C.ar    1  lig        -0.0611
     22 C8         26.6718   25.7496   11.6856 C.ar    1  lig        -0.0598
     23 C9         27.4052   26.7015    9.5556 C.ar    1  lig        -0.0520
     24 C10        25.3158   25.9890   11.4041 C.ar    1  lig        -0.0376
     25 C11        26.0667   26.9357    9.2696 C.ar    1  lig         0.0076
     26 C12        24.9638   26.5906   10.1946 C.ar    1  lig         0.0501
     27 C13        23.1117   30.1498   10.7575 C.2     1  lig         0.3561
     28 C14        21.8853   29.2633   10.7456 C.3     1  lig         0.0508
     29 C15        22.1793   27.8534   11.2940 C.3     1  lig        -0.0247
     30 C16        22.4548   26.8160   10.1901 C.3     1  lig         0.0244
     31 N1         23.7877   26.9568    9.5840 N.pl3   1  lig        -0.3398
     32 O1         23.1883   31.2122    9.9620 O.co2   1  lig        -0.2464
     33 O2         24.0593   29.9092   11.4914 O.co2   1  lig        -0.2464
@<TRIPOS>BOND
     1    27    33    1
     2    27    32    1
     3    27    28    1
     4    28    29    1
     5     9    28    1
     6    10    28    1
     7    29    30    1
     8    11    29    1
     9    12    29    1
    10    30    31    1
    11    13    30    1
    12    14    30    1
    13    26    31    1
    14    20    31    1
    15    24    26   ar
    16    25    26   ar
    17    22    24   ar
    18     8    24    1
    19    23    25   ar
    20    19    25    1
    21    21    23   ar
    22     7    23    1
    23    21    22   ar
    24     5    21    1
    25     6    22    1
    26    19    20   ar
    27    17    19   ar
    28    18    20   ar
    29    16    18   ar
    30     4    18    1
    31    15    17   ar
    32     3    17    1
    33    15    16   ar
    34     1    15    1
    35     2    16    1
@<TRIPOS>SUBSTRUCTURE
     1 lig         1 TEMP              0 ****  ****    0 ROOT


########## Name:		ligand
########## HA_RMSDs:		13.8615
########## HA_RMSDh:		13.3094
########## HA_RMSDm:		10.7412
########## Cluster Size:	2
##########    Grid Score:          -17.770424
##########      Grid_vdw:          -18.550976
##########       Grid_es:            0.780553
##########    Int_energy:            2.268569

@<TRIPOS>MOLECULE
ligand
 33 35 1 0 0
SMALL
No Charge or Current Charge


@<TRIPOS>ATOM
      1 H1         15.6836   28.5190    9.9553 H       1  lig         0.0618
      2 H2         17.1310   27.8814    8.0793 H       1  lig         0.0618
      3 H3         16.6076   28.8104   12.2523 H       1  lig         0.0624
      4 H4         19.5545   27.4706    8.3642 H       1  lig         0.0638
      5 H5         19.9267   28.9031   16.0707 H       1  lig         0.0618
      6 H6         22.1938   28.1917   15.4368 H       1  lig         0.0618
      7 H7         18.0969   28.9379   14.3801 H       1  lig         0.0624
      8 H8         22.8235   27.7065   13.1029 H       1  lig         0.0638
      9 H9         23.8106   27.1106    8.3593 H       1  lig         0.0379
     10 H10        24.3111   28.7597    8.1038 H       1  lig         0.0379
     11 H11        22.0851   29.0754    8.9339 H       1  lig         0.0288
     12 H12        23.0060   29.1577   10.4196 H       1  lig         0.0288
     13 H13        22.5920   26.7172   10.8327 H       1  lig         0.0492
     14 H14        21.5788   26.6720    9.3916 H       1  lig         0.0492
     15 C1         16.7422   28.3529   10.1344 C.ar    1  lig        -0.0611
     16 C2         17.5721   27.9817    9.0667 C.ar    1  lig        -0.0598
     17 C3         17.2523   28.5178   11.4277 C.ar    1  lig        -0.0520
     18 C4         18.9442   27.7506    9.2184 C.ar    1  lig        -0.0376
     19 C5         18.6178   28.2844   11.5924 C.ar    1  lig         0.0076
     20 C6         19.5151   27.8874   10.4891 C.ar    1  lig         0.0501
     21 C7         20.1503   28.6856   15.0282 C.ar    1  lig        -0.0611
     22 C8         21.4628   28.3443   14.6619 C.ar    1  lig        -0.0598
     23 C9         19.1115   28.6923   14.0870 C.ar    1  lig        -0.0520
     24 C10        21.8068   28.0070   13.3415 C.ar    1  lig        -0.0376
     25 C11        19.4462   28.3652   12.7796 C.ar    1  lig         0.0076
     26 C12        20.8173   28.0012   12.3568 C.ar    1  lig         0.0501
     27 C13        25.1524   27.8081    9.8330 C.2     1  lig         0.3561
     28 C14        24.0073   28.0518    8.8741 C.3     1  lig         0.0508
     29 C15        22.7215   28.4919    9.6007 C.3     1  lig        -0.0247
     30 C16        21.9299   27.3166   10.2029 C.3     1  lig         0.0244
     31 N1         20.7756   27.7483   11.0061 N.pl3   1  lig        -0.3398
     32 O1         25.7177   26.6082    9.9232 O.co2   1  lig        -0.2464
     33 O2         25.5800   28.7025   10.5483 O.co2   1  lig        -0.2464
@<TRIPOS>BOND
     1    27    33    1
     2    27    32    1
     3    27    28    1
     4    28    29    1
     5     9    28    1
     6    10    28    1
     7    29    30    1
     8    11    29    1
     9    12    29    1
    10    30    31    1
    11    13    30    1
    12    14    30    1
    13    26    31    1
    14    20    31    1
    15    24    26   ar
    16    25    26   ar
    17    22    24   ar
    18     8    24    1
    19    23    25   ar
    20    19    25    1
    21    21    23   ar
    22     7    23    1
    23    21    22   ar
    24     5    21    1
    25     6    22    1
    26    19    20   ar
    27    17    19   ar
    28    18    20   ar
    29    16    18   ar
    30     4    18    1
    31    15    17   ar
    32     3    17    1
    33    15    16   ar
    34     1    15    1
    35     2    16    1
@<TRIPOS>SUBSTRUCTURE
     1 lig         1 TEMP              0 ****  ****    0 ROOT


########## Name:		ligand
########## HA_RMSDs:		13.8004
########## HA_RMSDh:		13.2513
########## HA_RMSDm:		11.2616
########## Cluster Size:	1
##########    Grid Score:          -17.673353
##########      Grid_vdw:          -17.361406
##########       Grid_es:           -0.311947
##########    Int_energy:            2.744089

@<TRIPOS>MOLECULE
ligand
 33 35 1 0 0
SMALL
No Charge or Current Charge


@<TRIPOS>ATOM
      1 H1         18.1302    7.8380    9.8403 H       1  lig         0.0618
      2 H2         19.7110    8.8844    8.2825 H       1  lig         0.0618
      3 H3         18.9253    6.7095   11.9161 H       1  lig         0.0624
      4 H4         22.1555    8.8549    8.6664 H       1  lig         0.0638
      5 H5         22.0707    4.8852   15.4351 H       1  lig         0.0618
      6 H6         24.4507    5.2134   14.9098 H       1  lig         0.0618
      7 H7         20.3105    5.6801   13.8612 H       1  lig         0.0624
      8 H8         25.2066    6.5183   12.9592 H       1  lig         0.0638
      9 H9         24.8846   10.7738    9.8219 H       1  lig         0.0379
     10 H10        23.5602   10.5325   10.9278 H       1  lig         0.0379
     11 H11        25.2173    8.8897   12.2011 H       1  lig         0.0288
     12 H12        26.2579    9.0815   10.8074 H       1  lig         0.0288
     13 H13        25.1328    7.1153   10.2603 H       1  lig         0.0492
     14 H14        24.2247    8.3339    9.3681 H       1  lig         0.0492
     15 C1         19.1939    7.7988   10.0576 C.ar    1  lig        -0.0611
     16 C2         20.1018    8.3894    9.1668 C.ar    1  lig        -0.0598
     17 C3         19.6316    7.1622   11.2251 C.ar    1  lig        -0.0520
     18 C4         21.4854    8.3801    9.3780 C.ar    1  lig        -0.0376
     19 C5         21.0094    7.1414   11.4433 C.ar    1  lig         0.0076
     20 C6         21.9893    7.7494   10.5214 C.ar    1  lig         0.0501
     21 C7         22.3530    5.4566   14.5531 C.ar    1  lig        -0.0611
     22 C8         23.7125    5.6976   14.2943 C.ar    1  lig        -0.0598
     23 C9         21.3568    5.8862   13.6653 C.ar    1  lig        -0.0520
     24 C10        24.1446    6.3878   13.1488 C.ar    1  lig        -0.0376
     25 C11        21.7773    6.5735   12.5343 C.ar    1  lig         0.0076
     26 C12        23.1998    6.8462   12.2290 C.ar    1  lig         0.0501
     27 C13        25.2592   11.5547   11.7476 C.2     1  lig         0.3561
     28 C14        24.6463   10.5011   10.8507 C.3     1  lig         0.0508
     29 C15        25.2136    9.0956   11.1299 C.3     1  lig        -0.0247
     30 C16        24.4721    7.9785   10.3729 C.3     1  lig         0.0244
     31 N1         23.2378    7.5451   11.0457 N.pl3   1  lig        -0.3398
     32 O1         26.2680   12.3069   11.3189 O.co2   1  lig        -0.2464
     33 O2         24.8472   11.7355   12.8843 O.co2   1  lig        -0.2464
@<TRIPOS>BOND
     1    27    33    1
     2    27    32    1
     3    27    28    1
     4    28    29    1
     5     9    28    1
     6    10    28    1
     7    29    30    1
     8    11    29    1
     9    12    29    1
    10    30    31    1
    11    13    30    1
    12    14    30    1
    13    26    31    1
    14    20    31    1
    15    24    26   ar
    16    25    26   ar
    17    22    24   ar
    18     8    24    1
    19    23    25   ar
    20    19    25    1
    21    21    23   ar
    22     7    23    1
    23    21    22   ar
    24     5    21    1
    25     6    22    1
    26    19    20   ar
    27    17    19   ar
    28    18    20   ar
    29    16    18   ar
    30     4    18    1
    31    15    17   ar
    32     3    17    1
    33    15    16   ar
    34     1    15    1
    35     2    16    1
@<TRIPOS>SUBSTRUCTURE
     1 lig         1 TEMP              0 ****  ****    0 ROOT


########## Name:		ligand
########## HA_RMSDs:		13.9399
########## HA_RMSDh:		13.5423
########## HA_RMSDm:		8.2071
########## Cluster Size:	1
##########    Grid Score:          -17.667503
##########      Grid_vdw:          -17.962320
##########       Grid_es:            0.294816
##########    Int_energy:            1.645958

@<TRIPOS>MOLECULE
ligand
 33 35 1 0 0
SMALL
No Charge or Current Charge


@<TRIPOS>ATOM
      1 H1         17.2395   25.0176   12.9065 H       1  lig         0.0618
      2 H2         15.6916   26.5651   11.7975 H       1  lig         0.0618
      3 H3         19.1339   25.8629   14.2892 H       1  lig         0.0624
      4 H4         15.9373   29.0217   11.9653 H       1  lig         0.0638
      5 H5         22.3103   29.0929   16.5436 H       1  lig         0.0618
      6 H6         21.8583   31.4553   16.0308 H       1  lig         0.0618
      7 H7         20.8997   27.2948   15.5515 H       1  lig         0.0624
      8 H8         19.8935   32.1726   14.7254 H       1  lig         0.0638
      9 H9         16.3843   32.9928   10.9959 H       1  lig         0.0379
     10 H10        17.5544   33.9602   11.8505 H       1  lig         0.0379
     11 H11        19.1583   31.9176   11.7205 H       1  lig         0.0288
     12 H12        17.8672   31.0467   10.9228 H       1  lig         0.0288
     13 H13        16.4187   31.1941   12.8974 H       1  lig         0.0492
     14 H14        17.6109   32.1856   13.7347 H       1  lig         0.0492
     15 C1         17.3910   26.0879   13.0147 C.ar    1  lig        -0.0611
     16 C2         16.5129   26.9763   12.3772 C.ar    1  lig        -0.0598
     17 C3         18.4579   26.5537   13.7923 C.ar    1  lig        -0.0520
     18 C4         16.6427   28.3669   12.4695 C.ar    1  lig        -0.0376
     19 C5         18.6009   27.9383   13.8868 C.ar    1  lig         0.0076
     20 C6         17.6962   28.8978   13.2228 C.ar    1  lig         0.0501
     21 C7         21.4374   29.3569   15.9500 C.ar    1  lig        -0.0611
     22 C8         21.1471   30.7113   15.7163 C.ar    1  lig        -0.0598
     23 C9         20.6588   28.3383   15.3829 C.ar    1  lig        -0.0520
     24 C10        20.0624   31.1169   14.9197 C.ar    1  lig        -0.0376
     25 C11        19.5824   28.7329   14.5993 C.ar    1  lig         0.0076
     26 C12        19.2459   30.1493   14.3316 C.ar    1  lig         0.0501
     27 C13        18.0287   33.5564    9.7974 C.2     1  lig         0.3561
     28 C14        17.4553   33.1441   11.1358 C.3     1  lig         0.0508
     29 C15        18.0728   31.8313   11.6555 C.3     1  lig        -0.0247
     30 C16        17.4904   31.3776   13.0067 C.3     1  lig         0.0244
     31 N1         18.1279   30.1602   13.5316 N.pl3   1  lig        -0.3398
     32 O1         17.4687   33.1453    8.6640 O.co2   1  lig        -0.2464
     33 O2         19.0191   34.2697    9.7260 O.co2   1  lig        -0.2464
@<TRIPOS>BOND
     1    27    33    1
     2    27    32    1
     3    27    28    1
     4    28    29    1
     5     9    28    1
     6    10    28    1
     7    29    30    1
     8    11    29    1
     9    12    29    1
    10    30    31    1
    11    13    30    1
    12    14    30    1
    13    26    31    1
    14    20    31    1
    15    24    26   ar
    16    25    26   ar
    17    22    24   ar
    18     8    24    1
    19    23    25   ar
    20    19    25    1
    21    21    23   ar
    22     7    23    1
    23    21    22   ar
    24     5    21    1
    25     6    22    1
    26    19    20   ar
    27    17    19   ar
    28    18    20   ar
    29    16    18   ar
    30     4    18    1
    31    15    17   ar
    32     3    17    1
    33    15    16   ar
    34     1    15    1
    35     2    16    1
@<TRIPOS>SUBSTRUCTURE
     1 lig         1 TEMP              0 ****  ****    0 ROOT


########## Name:		ligand
########## HA_RMSDs:		14.0171
########## HA_RMSDh:		13.9299
########## HA_RMSDm:		10.4165
########## Cluster Size:	2
##########    Grid Score:          -17.486000
##########      Grid_vdw:          -17.517181
##########       Grid_es:            0.031182
##########    Int_energy:            1.674302

@<TRIPOS>MOLECULE
ligand
 33 35 1 0 0
SMALL
No Charge or Current Charge


@<TRIPOS>ATOM
      1 H1         25.1348   27.5017   10.6976 H       1  lig         0.0618
      2 H2         26.5863   29.1605   11.7756 H       1  lig         0.0618
      3 H3         22.8652   26.9989   11.5980 H       1  lig         0.0624
      4 H4         25.8975   30.3926   13.8081 H       1  lig         0.0638
      5 H5         18.8016   27.1391   14.6101 H       1  lig         0.0618
      6 H6         19.0564   28.6187   16.5578 H       1  lig         0.0618
      7 H7         20.6611   26.8782   12.9726 H       1  lig         0.0624
      8 H8         21.0269   30.0676   16.8690 H       1  lig         0.0638
      9 H9         22.3090   32.9459   17.0663 H       1  lig         0.0379
     10 H10        23.9804   33.2608   17.4438 H       1  lig         0.0379
     11 H11        24.5201   32.6878   14.9640 H       1  lig         0.0288
     12 H12        22.8180   32.3422   14.7510 H       1  lig         0.0288
     13 H13        23.3559   30.7277   16.9130 H       1  lig         0.0492
     14 H14        24.8986   30.6803   16.0625 H       1  lig         0.0492
     15 C1         24.7827   28.0166   11.5870 C.ar    1  lig        -0.0611
     16 C2         25.6113   28.9606   12.2106 C.ar    1  lig        -0.0598
     17 C3         23.5071   27.7274   12.0862 C.ar    1  lig        -0.0520
     18 C4         25.2283   29.6642   13.3584 C.ar    1  lig        -0.0376
     19 C5         23.1167   28.4183   13.2336 C.ar    1  lig         0.0076
     20 C6         23.9689   29.4130   13.9150 C.ar    1  lig         0.0501
     21 C7         19.6980   27.7479   14.7094 C.ar    1  lig        -0.0611
     22 C8         19.8087   28.6403   15.7886 C.ar    1  lig        -0.0598
     23 C9         20.7454   27.5828   13.7924 C.ar    1  lig        -0.0520
     24 C10        20.9592   29.4197   15.9993 C.ar    1  lig        -0.0376
     25 C11        21.8826   28.3542   13.9922 C.ar    1  lig         0.0076
     26 C12        22.0347   29.3047   15.1167 C.ar    1  lig         0.0501
     27 C13        23.0480   34.7026   16.1572 C.2     1  lig         0.3561
     28 C14        23.2525   33.2808   16.6336 C.3     1  lig         0.0508
     29 C15        23.6301   32.3284   15.4824 C.3     1  lig        -0.0247
     30 C16        23.8284   30.8711   15.9381 C.3     1  lig         0.0244
     31 N1         23.2728   29.8894   14.9939 N.pl3   1  lig        -0.3398
     32 O1         21.8503   35.1180   15.7571 O.co2   1  lig        -0.2464
     33 O2         23.9755   35.4983   16.1238 O.co2   1  lig        -0.2464
@<TRIPOS>BOND
     1    27    33    1
     2    27    32    1
     3    27    28    1
     4    28    29    1
     5     9    28    1
     6    10    28    1
     7    29    30    1
     8    11    29    1
     9    12    29    1
    10    30    31    1
    11    13    30    1
    12    14    30    1
    13    26    31    1
    14    20    31    1
    15    24    26   ar
    16    25    26   ar
    17    22    24   ar
    18     8    24    1
    19    23    25   ar
    20    19    25    1
    21    21    23   ar
    22     7    23    1
    23    21    22   ar
    24     5    21    1
    25     6    22    1
    26    19    20   ar
    27    17    19   ar
    28    18    20   ar
    29    16    18   ar
    30     4    18    1
    31    15    17   ar
    32     3    17    1
    33    15    16   ar
    34     1    15    1
    35     2    16    1
@<TRIPOS>SUBSTRUCTURE
     1 lig         1 TEMP              0 ****  ****    0 ROOT


########## Name:		ligand
########## HA_RMSDs:		13.8652
########## HA_RMSDh:		13.4165
########## HA_RMSDm:		10.6193
########## Cluster Size:	1
##########    Grid Score:          -17.305120
##########      Grid_vdw:          -18.238075
##########       Grid_es:            0.932956
##########    Int_energy:            2.978503

@<TRIPOS>MOLECULE
ligand
 33 35 1 0 0
SMALL
No Charge or Current Charge


@<TRIPOS>ATOM
      1 H1         17.6865   27.6451    9.3835 H       1  lig         0.0618
      2 H2         19.8371   27.3718    8.2343 H       1  lig         0.0618
      3 H3         17.5864   28.2156   11.8082 H       1  lig         0.0624
      4 H4         22.0008   27.6175    9.4098 H       1  lig         0.0638
      5 H5         19.1115   29.2543   16.5199 H       1  lig         0.0618
      6 H6         21.5498   29.1503   16.8230 H       1  lig         0.0618
      7 H7         18.0953   28.7730   14.2966 H       1  lig         0.0624
      8 H8         23.1026   28.7999   14.9402 H       1  lig         0.0638
      9 H9         25.8013   28.2665   10.5520 H       1  lig         0.0379
     10 H10        25.9368   29.9809   10.2736 H       1  lig         0.0379
     11 H11        23.5338   29.4779   10.2733 H       1  lig         0.0288
     12 H12        23.8627   30.2328   11.8173 H       1  lig         0.0288
     13 H13        24.0133   28.0044   12.9236 H       1  lig         0.0492
     14 H14        23.6456   27.2255   11.3862 H       1  lig         0.0492
     15 C1         18.6079   27.7664    9.9461 C.ar    1  lig        -0.0611
     16 C2         19.8394   27.6045    9.2952 C.ar    1  lig        -0.0598
     17 C3         18.5422   28.0858   11.3076 C.ar    1  lig        -0.0520
     18 C4         21.0676   27.7449    9.9517 C.ar    1  lig        -0.0376
     19 C5         19.7603   28.2225   11.9740 C.ar    1  lig         0.0076
     20 C6         21.0716   28.0526   11.3171 C.ar    1  lig         0.0501
     21 C7         19.7537   29.0819   15.6586 C.ar    1  lig        -0.0611
     22 C8         21.1483   29.0898   15.8263 C.ar    1  lig        -0.0598
     23 C9         19.1728   28.7965   14.4150 C.ar    1  lig        -0.0520
     24 C10        22.0307   28.8279   14.7641 C.ar    1  lig        -0.0376
     25 C11        20.0396   28.5421   13.3604 C.ar    1  lig         0.0076
     26 C12        21.5133   28.5424   13.4994 C.ar    1  lig         0.0501
     27 C13        26.3623   29.3453   12.2782 C.2     1  lig         0.3561
     28 C14        25.5782   29.2409   10.9881 C.3     1  lig         0.0508
     29 C15        24.0577   29.3384   11.2200 C.3     1  lig        -0.0247
     30 C16        23.4789   28.1301   11.9787 C.3     1  lig         0.0244
     31 N1         22.0412   28.2599   12.2618 N.pl3   1  lig        -0.3398
     32 O1         27.4050   28.5523   12.5041 O.co2   1  lig        -0.2464
     33 O2         26.0544   30.1537   13.1421 O.co2   1  lig        -0.2464
@<TRIPOS>BOND
     1    27    33    1
     2    27    32    1
     3    27    28    1
     4    28    29    1
     5     9    28    1
     6    10    28    1
     7    29    30    1
     8    11    29    1
     9    12    29    1
    10    30    31    1
    11    13    30    1
    12    14    30    1
    13    26    31    1
    14    20    31    1
    15    24    26   ar
    16    25    26   ar
    17    22    24   ar
    18     8    24    1
    19    23    25   ar
    20    19    25    1
    21    21    23   ar
    22     7    23    1
    23    21    22   ar
    24     5    21    1
    25     6    22    1
    26    19    20   ar
    27    17    19   ar
    28    18    20   ar
    29    16    18   ar
    30     4    18    1
    31    15    17   ar
    32     3    17    1
    33    15    16   ar
    34     1    15    1
    35     2    16    1
@<TRIPOS>SUBSTRUCTURE
     1 lig         1 TEMP              0 ****  ****    0 ROOT


########## Name:		ligand
########## HA_RMSDs:		15.5694
########## HA_RMSDh:		15.1371
########## HA_RMSDm:		8.3440
########## Cluster Size:	1
##########    Grid Score:          -17.286144
##########      Grid_vdw:          -16.040884
##########       Grid_es:           -1.245261
##########    Int_energy:            2.111041

@<TRIPOS>MOLECULE
ligand
 33 35 1 0 0
SMALL
No Charge or Current Charge


@<TRIPOS>ATOM
      1 H1         27.0730   12.1833   12.9965 H       1  lig         0.0618
      2 H2         28.7062   12.1962   11.1653 H       1  lig         0.0618
      3 H3         27.6547   13.0865   15.2461 H       1  lig         0.0624
      4 H4         31.0030   13.0711   11.4532 H       1  lig         0.0638
      5 H5         30.3627   15.1371   18.9966 H       1  lig         0.0618
      6 H6         32.7031   15.5981   18.3982 H       1  lig         0.0618
      7 H7         28.8136   14.1155   17.3341 H       1  lig         0.0624
      8 H8         33.5664   15.2974   16.1083 H       1  lig         0.0638
      9 H9         35.3479   15.7054   12.4177 H       1  lig         0.0379
     10 H10        34.6286   14.9715   11.0109 H       1  lig         0.0379
     11 H11        32.3296   15.8023   11.9142 H       1  lig         0.0288
     12 H12        33.1884   16.4140   13.3107 H       1  lig         0.0288
     13 H13        33.9311   14.1413   13.9387 H       1  lig         0.0492
     14 H14        33.1232   13.4730   12.5223 H       1  lig         0.0492
     15 C1         28.0678   12.5815   13.1756 C.ar    1  lig        -0.0611
     16 C2         29.0068   12.5848   12.1340 C.ar    1  lig        -0.0598
     17 C3         28.3860   13.0858   14.4422 C.ar    1  lig        -0.0520
     18 C4         30.3067   13.0807   12.2873 C.ar    1  lig        -0.0376
     19 C5         29.6810   13.5775   14.6087 C.ar    1  lig         0.0076
     20 C6         30.6924   13.5890   13.5331 C.ar    1  lig         0.0501
     21 C7         30.6988   14.9735   17.9747 C.ar    1  lig        -0.0611
     22 C8         32.0186   15.3014   17.6226 C.ar    1  lig        -0.0598
     23 C9         29.8251   14.3838   17.0505 C.ar    1  lig        -0.0520
     24 C10        32.5276   15.0710   16.3329 C.ar    1  lig        -0.0376
     25 C11        30.3206   14.1586   15.7730 C.ar    1  lig         0.0076
     26 C12        31.7044   14.4913   15.3659 C.ar    1  lig         0.0501
     27 C13        34.5947   17.1166   11.0393 C.2     1  lig         0.3561
     28 C14        34.5006   15.7756   11.7345 C.3     1  lig         0.0508
     29 C15        33.2002   15.6306   12.5486 C.3     1  lig        -0.0247
     30 C16        33.0796   14.2738   13.2665 C.3     1  lig         0.0244
     31 N1         31.8379   14.1393   14.0436 N.pl3   1  lig        -0.3398
     32 O1         35.2569   17.2414    9.8934 O.co2   1  lig        -0.2464
     33 O2         34.0713   18.1138   11.5147 O.co2   1  lig        -0.2464
@<TRIPOS>BOND
     1    27    33    1
     2    27    32    1
     3    27    28    1
     4    28    29    1
     5     9    28    1
     6    10    28    1
     7    29    30    1
     8    11    29    1
     9    12    29    1
    10    30    31    1
    11    13    30    1
    12    14    30    1
    13    26    31    1
    14    20    31    1
    15    24    26   ar
    16    25    26   ar
    17    22    24   ar
    18     8    24    1
    19    23    25   ar
    20    19    25    1
    21    21    23   ar
    22     7    23    1
    23    21    22   ar
    24     5    21    1
    25     6    22    1
    26    19    20   ar
    27    17    19   ar
    28    18    20   ar
    29    16    18   ar
    30     4    18    1
    31    15    17   ar
    32     3    17    1
    33    15    16   ar
    34     1    15    1
    35     2    16    1
@<TRIPOS>SUBSTRUCTURE
     1 lig         1 TEMP              0 ****  ****    0 ROOT


########## Name:		ligand
########## HA_RMSDs:		13.2942
########## HA_RMSDh:		13.2712
########## HA_RMSDm:		9.7866
########## Cluster Size:	1
##########    Grid Score:          -17.214520
##########      Grid_vdw:          -16.629251
##########       Grid_es:           -0.585267
##########    Int_energy:            1.646762

@<TRIPOS>MOLECULE
ligand
 33 35 1 0 0
SMALL
No Charge or Current Charge


@<TRIPOS>ATOM
      1 H1         30.9650   14.6025   10.6449 H       1  lig         0.0618
      2 H2         30.5048   12.8843   12.3350 H       1  lig         0.0618
      3 H3         29.2034   15.3326    9.0391 H       1  lig         0.0624
      4 H4         28.3010   11.7740   12.5204 H       1  lig         0.0638
      5 H5         24.7517   15.5786    6.6460 H       1  lig         0.0618
      6 H6         23.0997   13.9416    7.4453 H       1  lig         0.0618
      7 H7         27.0311   15.6624    7.6483 H       1  lig         0.0624
      8 H8         23.5167   12.4835    9.3893 H       1  lig         0.0638
      9 H9         25.5578    8.8167   12.6197 H       1  lig         0.0379
     10 H10        23.9814    9.1751   11.9703 H       1  lig         0.0379
     11 H11        25.2886   10.0383    9.8327 H       1  lig         0.0288
     12 H12        26.7363    9.8342   10.7941 H       1  lig         0.0288
     13 H13        25.9223   11.4506   12.4836 H       1  lig         0.0492
     14 H14        24.4323   11.6694   11.5684 H       1  lig         0.0492
     15 C1         29.9790   14.1483   10.6849 C.ar    1  lig        -0.0611
     16 C2         29.7132   13.1610   11.6447 C.ar    1  lig        -0.0598
     17 C3         28.9961   14.5637    9.7786 C.ar    1  lig        -0.0520
     18 C4         28.4688   12.5304   11.7585 C.ar    1  lig        -0.0376
     19 C5         27.7532   13.9379    9.8787 C.ar    1  lig         0.0076
     20 C6         27.4457   12.8920   10.8744 C.ar    1  lig         0.0501
     21 C7         24.9900   14.9470    7.4994 C.ar    1  lig        -0.0611
     22 C8         24.0183   14.0607    7.9932 C.ar    1  lig        -0.0598
     23 C9         26.2799   14.9897    8.0466 C.ar    1  lig        -0.0520
     24 C10        24.2786   13.1856    9.0618 C.ar    1  lig        -0.0376
     25 C11        26.5414   14.1312    9.1063 C.ar    1  lig         0.0076
     26 C12        25.5431   13.1849    9.6532 C.ar    1  lig         0.0501
     27 C13        25.0387    7.5929   10.9791 C.2     1  lig         0.3561
     28 C14        25.0043    8.9302   11.6868 C.3     1  lig         0.0508
     29 C15        25.6660   10.0469   10.8562 C.3     1  lig        -0.0247
     30 C16        25.4995   11.4466   11.4758 C.3     1  lig         0.0244
     31 N1         26.1444   12.5082   10.6878 N.pl3   1  lig        -0.3398
     32 O1         26.0740    6.7727   11.1293 O.co2   1  lig        -0.2464
     33 O2         24.1225    7.2382   10.2517 O.co2   1  lig        -0.2464
@<TRIPOS>BOND
     1    27    33    1
     2    27    32    1
     3    27    28    1
     4    28    29    1
     5     9    28    1
     6    10    28    1
     7    29    30    1
     8    11    29    1
     9    12    29    1
    10    30    31    1
    11    13    30    1
    12    14    30    1
    13    26    31    1
    14    20    31    1
    15    24    26   ar
    16    25    26   ar
    17    22    24   ar
    18     8    24    1
    19    23    25   ar
    20    19    25    1
    21    21    23   ar
    22     7    23    1
    23    21    22   ar
    24     5    21    1
    25     6    22    1
    26    19    20   ar
    27    17    19   ar
    28    18    20   ar
    29    16    18   ar
    30     4    18    1
    31    15    17   ar
    32     3    17    1
    33    15    16   ar
    34     1    15    1
    35     2    16    1
@<TRIPOS>SUBSTRUCTURE
     1 lig         1 TEMP              0 ****  ****    0 ROOT


########## Name:		ligand
########## HA_RMSDs:		13.6277
########## HA_RMSDh:		13.5706
########## HA_RMSDm:		9.2096
########## Cluster Size:	2
##########    Grid Score:          -17.144596
##########      Grid_vdw:          -16.710461
##########       Grid_es:           -0.434135
##########    Int_energy:            3.221362

@<TRIPOS>MOLECULE
ligand
 33 35 1 0 0
SMALL
No Charge or Current Charge


@<TRIPOS>ATOM
      1 H1         31.9818   13.9313   15.8351 H       1  lig         0.0618
      2 H2         29.8103   12.9394   16.4022 H       1  lig         0.0618
      3 H3         32.6222   14.3568   13.4636 H       1  lig         0.0624
      4 H4         28.1656   12.2889   14.6716 H       1  lig         0.0638
      5 H5         32.3624   14.4752    8.4116 H       1  lig         0.0618
      6 H6         30.3243   13.4485    7.4950 H       1  lig         0.0618
      7 H7         32.7455   14.5386   10.8726 H       1  lig         0.0624
      8 H8         28.4847   12.6516    8.9302 H       1  lig         0.0638
      9 H9         24.9847   11.4171   12.8887 H       1  lig         0.0379
     10 H10        24.1500   12.9171   12.5909 H       1  lig         0.0379
     11 H11        26.5360   13.3742   13.2165 H       1  lig         0.0288
     12 H12        26.2698   13.8271   11.5474 H       1  lig         0.0288
     13 H13        27.2924   11.7625   10.7183 H       1  lig         0.0492
     14 H14        27.4714   11.1511   12.3614 H       1  lig         0.0492
     15 C1         31.2947   13.6661   15.0364 C.ar    1  lig        -0.0611
     16 C2         30.0553   13.0927   15.3552 C.ar    1  lig        -0.0598
     17 C3         31.6630   13.9078   13.7075 C.ar    1  lig        -0.0520
     18 C4         29.1181   12.7249   14.3829 C.ar    1  lig        -0.0376
     19 C5         30.7391   13.5397   12.7291 C.ar    1  lig         0.0076
     20 C6         29.4297   12.9294   13.0338 C.ar    1  lig         0.0501
     21 C7         31.5856   14.1249    9.0882 C.ar    1  lig        -0.0611
     22 C8         30.3951   13.6004    8.5580 C.ar    1  lig        -0.0598
     23 C9         31.8165   14.1500   10.4707 C.ar    1  lig        -0.0520
     24 C10        29.3736   13.0889    9.3767 C.ar    1  lig        -0.0376
     25 C11        30.8084   13.6509   11.2851 C.ar    1  lig         0.0076
     26 C12        29.5416   13.0914   10.7626 C.ar    1  lig         0.0501
     27 C13        24.5798   11.7492   10.8431 C.2     1  lig         0.3561
     28 C14        24.9447   12.2739   12.2149 C.3     1  lig         0.0508
     29 C15        26.3186   12.9717   12.2262 C.3     1  lig        -0.0247
     30 C16        27.4676   12.0617   11.7547 C.3     1  lig         0.0244
     31 N1         28.7880   12.7037   11.8452 N.pl3   1  lig        -0.3398
     32 O1         24.9260   10.5202   10.4730 O.co2   1  lig        -0.2464
     33 O2         23.9656   12.4409   10.0439 O.co2   1  lig        -0.2464
@<TRIPOS>BOND
     1    27    33    1
     2    27    32    1
     3    27    28    1
     4    28    29    1
     5     9    28    1
     6    10    28    1
     7    29    30    1
     8    11    29    1
     9    12    29    1
    10    30    31    1
    11    13    30    1
    12    14    30    1
    13    26    31    1
    14    20    31    1
    15    24    26   ar
    16    25    26   ar
    17    22    24   ar
    18     8    24    1
    19    23    25   ar
    20    19    25    1
    21    21    23   ar
    22     7    23    1
    23    21    22   ar
    24     5    21    1
    25     6    22    1
    26    19    20   ar
    27    17    19   ar
    28    18    20   ar
    29    16    18   ar
    30     4    18    1
    31    15    17   ar
    32     3    17    1
    33    15    16   ar
    34     1    15    1
    35     2    16    1
@<TRIPOS>SUBSTRUCTURE
     1 lig         1 TEMP              0 ****  ****    0 ROOT


########## Name:		ligand
########## HA_RMSDs:		15.7644
########## HA_RMSDh:		15.6824
########## HA_RMSDm:		10.5332
########## Cluster Size:	1
##########    Grid Score:          -16.998182
##########      Grid_vdw:          -17.492073
##########       Grid_es:            0.493891
##########    Int_energy:            1.701200

@<TRIPOS>MOLECULE
ligand
 33 35 1 0 0
SMALL
No Charge or Current Charge


@<TRIPOS>ATOM
      1 H1         27.3931   25.0808   12.8372 H       1  lig         0.0618
      2 H2         28.7451   25.5388   10.8415 H       1  lig         0.0618
      3 H3         24.9849   25.7180   12.9342 H       1  lig         0.0624
      4 H4         27.8122   26.6695    8.8478 H       1  lig         0.0638
      5 H5         20.5090   27.6320   11.5529 H       1  lig         0.0618
      6 H6         20.5335   28.7360    9.3555 H       1  lig         0.0618
      7 H7         22.5874   26.6149   12.4765 H       1  lig         0.0624
      8 H8         22.5072   28.6978    7.8784 H       1  lig         0.0638
      9 H9         27.2766   29.1955    5.7631 H       1  lig         0.0379
     10 H10        25.7436   29.9849    5.5139 H       1  lig         0.0379
     11 H11        25.4979   30.0852    8.0922 H       1  lig         0.0288
     12 H12        27.0390   29.2643    8.2070 H       1  lig         0.0288
     13 H13        26.1551   27.2611    7.0872 H       1  lig         0.0492
     14 H14        24.6008   28.0545    6.8417 H       1  lig         0.0492
     15 C1         26.9335   25.5778   11.9876 C.ar    1  lig        -0.0611
     16 C2         27.7039   25.8478   10.8473 C.ar    1  lig        -0.0598
     17 C3         25.5808   25.9329   12.0511 C.ar    1  lig        -0.0520
     18 C4         27.1834   26.4839    9.7144 C.ar    1  lig        -0.0376
     19 C5         25.0522   26.5730   10.9297 C.ar    1  lig         0.0076
     20 C6         25.8396   26.8754    9.7179 C.ar    1  lig         0.0501
     21 C7         21.4108   27.5997   10.9448 C.ar    1  lig        -0.0611
     22 C8         21.3983   28.1742    9.6629 C.ar    1  lig        -0.0598
     23 C9         22.5796   27.0395   11.4789 C.ar    1  lig        -0.0520
     24 C10        22.5423   28.2068    8.8471 C.ar    1  lig        -0.0376
     25 C11        23.7118   27.0639   10.6753 C.ar    1  lig         0.0076
     26 C12        23.7362   27.6595    9.3205 C.ar    1  lig         0.0501
     27 C13        27.2943   31.2342    6.3126 C.2     1  lig         0.3561
     28 C14        26.5784   29.9050    6.2091 C.3     1  lig         0.0508
     29 C15        26.1449   29.3670    7.5866 C.3     1  lig        -0.0247
     30 C16        25.4612   27.9893    7.5145 C.3     1  lig         0.0244
     31 N1         25.0087   27.4991    8.8256 N.pl3   1  lig        -0.3398
     32 O1         28.6087   31.2834    6.5055 O.co2   1  lig        -0.2464
     33 O2         26.6839   32.2900    6.2271 O.co2   1  lig        -0.2464
@<TRIPOS>BOND
     1    27    33    1
     2    27    32    1
     3    27    28    1
     4    28    29    1
     5     9    28    1
     6    10    28    1
     7    29    30    1
     8    11    29    1
     9    12    29    1
    10    30    31    1
    11    13    30    1
    12    14    30    1
    13    26    31    1
    14    20    31    1
    15    24    26   ar
    16    25    26   ar
    17    22    24   ar
    18     8    24    1
    19    23    25   ar
    20    19    25    1
    21    21    23   ar
    22     7    23    1
    23    21    22   ar
    24     5    21    1
    25     6    22    1
    26    19    20   ar
    27    17    19   ar
    28    18    20   ar
    29    16    18   ar
    30     4    18    1
    31    15    17   ar
    32     3    17    1
    33    15    16   ar
    34     1    15    1
    35     2    16    1
@<TRIPOS>SUBSTRUCTURE
     1 lig         1 TEMP              0 ****  ****    0 ROOT


########## Name:		ligand
########## HA_RMSDs:		15.4773
########## HA_RMSDh:		15.3034
########## HA_RMSDm:		9.9859
########## Cluster Size:	1
##########    Grid Score:          -16.972034
##########      Grid_vdw:          -18.028923
##########       Grid_es:            1.056888
##########    Int_energy:            1.932752

@<TRIPOS>MOLECULE
ligand
 33 35 1 0 0
SMALL
No Charge or Current Charge


@<TRIPOS>ATOM
      1 H1         10.8752   13.2250    6.6137 H       1  lig         0.0618
      2 H2          8.5483   13.3892    5.8526 H       1  lig         0.0618
      3 H3         12.3077   15.2547    6.8210 H       1  lig         0.0624
      4 H4          7.5141   15.5493    5.2299 H       1  lig         0.0638
      5 H5         13.7552   20.0992    6.6185 H       1  lig         0.0618
      6 H6         12.0427   21.6130    5.7109 H       1  lig         0.0618
      7 H7         13.3031   17.6570    6.8154 H       1  lig         0.0624
      8 H8          9.7587   20.8555    5.1739 H       1  lig         0.0638
      9 H9          5.8976   20.4782    4.8748 H       1  lig         0.0379
     10 H10         4.9483   19.0221    4.7573 H       1  lig         0.0379
     11 H11         6.4682   17.9308    6.4760 H       1  lig         0.0288
     12 H12         7.2747   19.4651    6.7159 H       1  lig         0.0288
     13 H13         8.0034   19.4203    4.2779 H       1  lig         0.0492
     14 H14         7.3785   17.7749    4.1892 H       1  lig         0.0492
     15 C1         10.4691   14.1988    6.3550 C.ar    1  lig        -0.0611
     16 C2          9.1418   14.2968    5.9130 C.ar    1  lig        -0.0598
     17 C3         11.2810   15.3331    6.4735 C.ar    1  lig        -0.0520
     18 C4          8.5481   15.5148    5.5620 C.ar    1  lig        -0.0376
     19 C5         10.7018   16.5523    6.1206 C.ar    1  lig         0.0076
     20 C6          9.3098   16.6860    5.6470 C.ar    1  lig         0.0501
     21 C7         12.7658   19.7124    6.3829 C.ar    1  lig        -0.0611
     22 C8         11.7716   20.5943    5.9278 C.ar    1  lig        -0.0598
     23 C9         12.5255   18.3348    6.4817 C.ar    1  lig        -0.0520
     24 C10        10.4889   20.1509    5.5626 C.ar    1  lig        -0.0376
     25 C11        11.2582   17.8913    6.1274 C.ar    1  lig         0.0076
     26 C12        10.1861   18.7906    5.6445 C.ar    1  lig         0.0501
     27 C13         4.6833   20.1408    6.5689 C.2     1  lig         0.3561
     28 C14         5.5497   19.6158    5.4447 C.3     1  lig         0.0508
     29 C15         6.7776   18.8442    5.9661 C.3     1  lig        -0.0247
     30 C16         7.8055   18.5208    4.8663 C.3     1  lig         0.0244
     31 N1          9.0798   18.0128    5.3972 N.pl3   1  lig        -0.3398
     32 O1          4.1467   21.3552    6.5011 O.co2   1  lig        -0.2464
     33 O2          4.4610   19.4666    7.5642 O.co2   1  lig        -0.2464
@<TRIPOS>BOND
     1    27    33    1
     2    27    32    1
     3    27    28    1
     4    28    29    1
     5     9    28    1
     6    10    28    1
     7    29    30    1
     8    11    29    1
     9    12    29    1
    10    30    31    1
    11    13    30    1
    12    14    30    1
    13    26    31    1
    14    20    31    1
    15    24    26   ar
    16    25    26   ar
    17    22    24   ar
    18     8    24    1
    19    23    25   ar
    20    19    25    1
    21    21    23   ar
    22     7    23    1
    23    21    22   ar
    24     5    21    1
    25     6    22    1
    26    19    20   ar
    27    17    19   ar
    28    18    20   ar
    29    16    18   ar
    30     4    18    1
    31    15    17   ar
    32     3    17    1
    33    15    16   ar
    34     1    15    1
    35     2    16    1
@<TRIPOS>SUBSTRUCTURE
     1 lig         1 TEMP              0 ****  ****    0 ROOT


########## Name:		ligand
########## HA_RMSDs:		13.9550
########## HA_RMSDh:		13.8151
########## HA_RMSDm:		11.6940
########## Cluster Size:	1
##########    Grid Score:          -16.863398
##########      Grid_vdw:          -16.760511
##########       Grid_es:           -0.102885
##########    Int_energy:            1.759728

@<TRIPOS>MOLECULE
ligand
 33 35 1 0 0
SMALL
No Charge or Current Charge


@<TRIPOS>ATOM
      1 H1         28.6441   27.0948   11.2507 H       1  lig         0.0618
      2 H2         27.0241   25.8018    9.9376 H       1  lig         0.0618
      3 H3         27.8911   28.7086   12.9954 H       1  lig         0.0624
      4 H4         24.5812   26.0442   10.2490 H       1  lig         0.0638
      5 H5         24.8151   31.4503   15.9323 H       1  lig         0.0618
      6 H6         22.4262   31.1332   15.4419 H       1  lig         0.0618
      7 H7         26.5449   30.2263   14.6220 H       1  lig         0.0624
      8 H8         21.6195   29.4564   13.8243 H       1  lig         0.0638
      9 H9         21.5335   26.9480    8.9928 H       1  lig         0.0379
     10 H10        20.0802   27.0051    9.9520 H       1  lig         0.0379
     11 H11        21.0747   29.1164   11.1053 H       1  lig         0.0288
     12 H12        22.5036   28.8876   10.1216 H       1  lig         0.0288
     13 H13        22.4992   26.4375   11.1930 H       1  lig         0.0492
     14 H14        21.5724   27.2408   12.4584 H       1  lig         0.0492
     15 C1         27.5820   27.2375   11.4291 C.ar    1  lig        -0.0611
     16 C2         26.6522   26.5058   10.6764 C.ar    1  lig        -0.0598
     17 C3         27.1681   28.1465   12.4101 C.ar    1  lig        -0.0520
     18 C4         25.2691   26.6343   10.8484 C.ar    1  lig        -0.0376
     19 C5         25.7914   28.2875   12.5865 C.ar    1  lig         0.0076
     20 C6         24.7890   27.5355   11.8057 C.ar    1  lig         0.0501
     21 C7         24.5108   30.7072   15.1980 C.ar    1  lig        -0.0611
     22 C8         23.1428   30.4835   14.9702 C.ar    1  lig        -0.0598
     23 C9         25.4909   30.0349   14.4546 C.ar    1  lig        -0.0520
     24 C10        22.6851   29.5721   14.0031 C.ar    1  lig        -0.0376
     25 C11        25.0448   29.1291   13.5012 C.ar    1  lig         0.0076
     26 C12        23.6126   28.8671   13.2341 C.ar    1  lig         0.0501
     27 C13        20.2850   28.5813    8.5107 C.2     1  lig         0.3561
     28 C14        20.8689   27.6263    9.5292 C.3     1  lig         0.0508
     29 C15        21.6844   28.3571   10.6136 C.3     1  lig        -0.0247
     30 C16        22.2990   27.4064   11.6572 C.3     1  lig         0.0244
     31 N1         23.5483   27.9185   12.2411 N.pl3   1  lig        -0.3398
     32 O1         20.9250   28.8342    7.3733 O.co2   1  lig        -0.2464
     33 O2         19.2186   29.1447    8.7102 O.co2   1  lig        -0.2464
@<TRIPOS>BOND
     1    27    33    1
     2    27    32    1
     3    27    28    1
     4    28    29    1
     5     9    28    1
     6    10    28    1
     7    29    30    1
     8    11    29    1
     9    12    29    1
    10    30    31    1
    11    13    30    1
    12    14    30    1
    13    26    31    1
    14    20    31    1
    15    24    26   ar
    16    25    26   ar
    17    22    24   ar
    18     8    24    1
    19    23    25   ar
    20    19    25    1
    21    21    23   ar
    22     7    23    1
    23    21    22   ar
    24     5    21    1
    25     6    22    1
    26    19    20   ar
    27    17    19   ar
    28    18    20   ar
    29    16    18   ar
    30     4    18    1
    31    15    17   ar
    32     3    17    1
    33    15    16   ar
    34     1    15    1
    35     2    16    1
@<TRIPOS>SUBSTRUCTURE
     1 lig         1 TEMP              0 ****  ****    0 ROOT


########## Name:		ligand
########## HA_RMSDs:		13.6101
########## HA_RMSDh:		13.5584
########## HA_RMSDm:		9.5091
########## Cluster Size:	1
##########    Grid Score:          -16.734848
##########      Grid_vdw:          -17.035950
##########       Grid_es:            0.301102
##########    Int_energy:            2.644974

@<TRIPOS>MOLECULE
ligand
 33 35 1 0 0
SMALL
No Charge or Current Charge


@<TRIPOS>ATOM
      1 H1         32.6104   12.1727    9.7214 H       1  lig         0.0618
      2 H2         33.5392   12.3409   11.9862 H       1  lig         0.0618
      3 H3         30.1529   12.3075    9.3250 H       1  lig         0.0624
      4 H4         32.1041   12.6232   13.9823 H       1  lig         0.0638
      5 H5         25.1951   12.6931   10.2616 H       1  lig         0.0618
      6 H6         24.6402   12.8122   12.6545 H       1  lig         0.0618
      7 H7         27.5665   12.4867    9.5257 H       1  lig         0.0624
      8 H8         26.3681   12.9630   14.4068 H       1  lig         0.0638
      9 H9         30.1931   15.3749   17.4045 H       1  lig         0.0379
     10 H10        28.8069   14.3280   17.5385 H       1  lig         0.0379
     11 H11        30.8935   14.3668   15.2535 H       1  lig         0.0288
     12 H12        29.2624   14.9950   15.1712 H       1  lig         0.0288
     13 H13        28.3605   12.6685   15.5935 H       1  lig         0.0492
     14 H14        30.0108   12.0612   15.4784 H       1  lig         0.0492
     15 C1         31.9358   12.2987   10.5635 C.ar    1  lig        -0.0611
     16 C2         32.4615   12.3885   11.8605 C.ar    1  lig        -0.0598
     17 C3         30.5571   12.3724   10.3317 C.ar    1  lig        -0.0520
     18 C4         31.6572   12.5515   12.9944 C.ar    1  lig        -0.0376
     19 C5         29.7448   12.5289   11.4552 C.ar    1  lig         0.0076
     20 C6         30.2687   12.6208   12.8325 C.ar    1  lig         0.0501
     21 C7         25.9952   12.7427   10.9975 C.ar    1  lig        -0.0611
     22 C8         25.6726   12.8777   12.3580 C.ar    1  lig        -0.0598
     23 C9         27.3255   12.6099   10.5756 C.ar    1  lig        -0.0520
     24 C10        26.6568   12.9005   13.3611 C.ar    1  lig        -0.0376
     25 C11        28.3028   12.6371   11.5617 C.ar    1  lig         0.0076
     26 C12        28.0009   12.7784   13.0039 C.ar    1  lig         0.0501
     27 C13        30.7027   13.3793   17.8696 C.2     1  lig         0.3561
     28 C14        29.8239   14.3803   17.1514 C.3     1  lig         0.0508
     29 C15        29.8780   14.2115   15.6205 C.3     1  lig        -0.0247
     30 C16        29.3368   12.8531   15.1383 C.3     1  lig         0.0244
     31 N1         29.2002   12.7713   13.6759 N.pl3   1  lig        -0.3398
     32 O1         31.9917   13.6322   18.0737 O.co2   1  lig        -0.2464
     33 O2         30.2524   12.3167   18.2729 O.co2   1  lig        -0.2464
@<TRIPOS>BOND
     1    27    33    1
     2    27    32    1
     3    27    28    1
     4    28    29    1
     5     9    28    1
     6    10    28    1
     7    29    30    1
     8    11    29    1
     9    12    29    1
    10    30    31    1
    11    13    30    1
    12    14    30    1
    13    26    31    1
    14    20    31    1
    15    24    26   ar
    16    25    26   ar
    17    22    24   ar
    18     8    24    1
    19    23    25   ar
    20    19    25    1
    21    21    23   ar
    22     7    23    1
    23    21    22   ar
    24     5    21    1
    25     6    22    1
    26    19    20   ar
    27    17    19   ar
    28    18    20   ar
    29    16    18   ar
    30     4    18    1
    31    15    17   ar
    32     3    17    1
    33    15    16   ar
    34     1    15    1
    35     2    16    1
@<TRIPOS>SUBSTRUCTURE
     1 lig         1 TEMP              0 ****  ****    0 ROOT


########## Name:		ligand
########## HA_RMSDs:		14.8426
########## HA_RMSDh:		14.3186
########## HA_RMSDm:		12.2104
########## Cluster Size:	1
##########    Grid Score:          -16.719460
##########      Grid_vdw:          -16.183996
##########       Grid_es:           -0.535463
##########    Int_energy:            5.377428

@<TRIPOS>MOLECULE
ligand
 33 35 1 0 0
SMALL
No Charge or Current Charge


@<TRIPOS>ATOM
      1 H1         11.8968    6.5811   10.2740 H       1  lig         0.0618
      2 H2         13.2173    5.9197    8.3146 H       1  lig         0.0618
      3 H3         12.8937    6.5767   12.5589 H       1  lig         0.0624
      4 H4         15.5760    5.1940    8.4980 H       1  lig         0.0638
      5 H5         16.2713    5.9635   16.2765 H       1  lig         0.0618
      6 H6         18.4199    5.0315   15.5261 H       1  lig         0.0618
      7 H7         14.4280    6.3542   14.6466 H       1  lig         0.0624
      8 H8         18.9393    4.6567   13.1452 H       1  lig         0.0638
      9 H9         17.6243    7.3837   10.3290 H       1  lig         0.0379
     10 H10        18.9044    6.9986   11.4462 H       1  lig         0.0379
     11 H11        19.8676    5.4194    9.6298 H       1  lig         0.0288
     12 H12        18.5157    5.8690    8.6138 H       1  lig         0.0288
     13 H13        18.5771    3.9271   10.8315 H       1  lig         0.0492
     14 H14        17.5069    4.0272    9.4350 H       1  lig         0.0492
     15 C1         12.9297    6.2731   10.4096 C.ar    1  lig        -0.0611
     16 C2         13.6864    5.8877    9.2937 C.ar    1  lig        -0.0598
     17 C3         13.4811    6.2728   11.6965 C.ar    1  lig        -0.0520
     18 C4         15.0218    5.4791    9.3881 C.ar    1  lig        -0.0376
     19 C5         14.8099    5.8617   11.8038 C.ar    1  lig         0.0076
     20 C6         15.6295    5.4452   10.6485 C.ar    1  lig         0.0501
     21 C7         16.4461    5.8024   15.2147 C.ar    1  lig        -0.0611
     22 C8         17.6988    5.3326   14.7862 C.ar    1  lig        -0.0598
     23 C9         15.3983    6.0098   14.3069 C.ar    1  lig        -0.0520
     24 C10        17.9727    5.0600   13.4349 C.ar    1  lig        -0.0376
     25 C11        15.6646    5.7473   12.9695 C.ar    1  lig         0.0076
     26 C12        16.9714    5.2524   12.4813 C.ar    1  lig         0.0501
     27 C13        19.4964    8.1689    9.7481 C.2     1  lig         0.3561
     28 C14        18.6685    7.0740   10.3854 C.3     1  lig         0.0508
     29 C15        18.8210    5.7263    9.6536 C.3     1  lig        -0.0247
     30 C16        17.9487    4.6071   10.2510 C.3     1  lig         0.0244
     31 N1         16.8726    5.1128   11.1172 N.pl3   1  lig        -0.3398
     32 O1         18.9150    9.1400    9.0509 O.co2   1  lig        -0.2464
     33 O2         20.7142    8.1841    9.8538 O.co2   1  lig        -0.2464
@<TRIPOS>BOND
     1    27    33    1
     2    27    32    1
     3    27    28    1
     4    28    29    1
     5     9    28    1
     6    10    28    1
     7    29    30    1
     8    11    29    1
     9    12    29    1
    10    30    31    1
    11    13    30    1
    12    14    30    1
    13    26    31    1
    14    20    31    1
    15    24    26   ar
    16    25    26   ar
    17    22    24   ar
    18     8    24    1
    19    23    25   ar
    20    19    25    1
    21    21    23   ar
    22     7    23    1
    23    21    22   ar
    24     5    21    1
    25     6    22    1
    26    19    20   ar
    27    17    19   ar
    28    18    20   ar
    29    16    18   ar
    30     4    18    1
    31    15    17   ar
    32     3    17    1
    33    15    16   ar
    34     1    15    1
    35     2    16    1
@<TRIPOS>SUBSTRUCTURE
     1 lig         1 TEMP              0 ****  ****    0 ROOT


########## Name:		ligand
########## HA_RMSDs:		14.1208
########## HA_RMSDh:		13.8895
########## HA_RMSDm:		10.0146
########## Cluster Size:	2
##########    Grid Score:          -16.713551
##########      Grid_vdw:          -16.638767
##########       Grid_es:           -0.074784
##########    Int_energy:            2.861497

@<TRIPOS>MOLECULE
ligand
 33 35 1 0 0
SMALL
No Charge or Current Charge


@<TRIPOS>ATOM
      1 H1         18.6386   27.8441   15.0044 H       1  lig         0.0618
      2 H2         19.4523   29.5367   16.5835 H       1  lig         0.0618
      3 H3         20.1073   26.9618   13.1936 H       1  lig         0.0624
      4 H4         21.7400   30.4709   16.4520 H       1  lig         0.0638
      5 H5         24.1655   26.3418   10.2352 H       1  lig         0.0618
      6 H6         26.0310   27.8507   10.7749 H       1  lig         0.0618
      7 H7         22.0415   26.4481   11.5332 H       1  lig         0.0624
      8 H8         25.9922   29.3556   12.7274 H       1  lig         0.0638
      9 H9         25.3339   33.5256   13.8426 H       1  lig         0.0379
     10 H10        25.7817   31.9295   13.3064 H       1  lig         0.0379
     11 H11        22.9777   32.0670   14.3513 H       1  lig         0.0288
     12 H12        24.1507   32.6413   15.5158 H       1  lig         0.0288
     13 H13        24.2781   30.4513   16.1186 H       1  lig         0.0492
     14 H14        25.4456   30.3853   14.8003 H       1  lig         0.0492
     15 C1         19.6531   28.2193   14.9038 C.ar    1  lig        -0.0611
     16 C2         20.1205   29.1917   15.7998 C.ar    1  lig        -0.0598
     17 C3         20.4706   27.7189   13.8835 C.ar    1  lig        -0.0520
     18 C4         21.4138   29.7230   15.7345 C.ar    1  lig        -0.0376
     19 C5         21.7602   28.2454   13.8048 C.ar    1  lig         0.0076
     20 C6         22.2781   29.2732   14.7297 C.ar    1  lig         0.0501
     21 C7         24.0933   26.9984   11.0999 C.ar    1  lig        -0.0611
     22 C8         25.1878   27.8097   11.4423 C.ar    1  lig        -0.0598
     23 C9         22.8890   27.0630   11.8145 C.ar    1  lig        -0.0520
     24 C10        25.1414   28.7128   12.5182 C.ar    1  lig        -0.0376
     25 C11        22.8389   27.9496   12.8821 C.ar    1  lig         0.0076
     26 C12        23.9714   28.8192   13.2724 C.ar    1  lig         0.0501
     27 C13        24.1521   32.8277   12.2380 C.2     1  lig         0.3561
     28 C14        24.9248   32.5696   13.5133 C.3     1  lig         0.0508
     29 C15        24.0295   32.0066   14.6342 C.3     1  lig        -0.0247
     30 C16        24.3930   30.5659   15.0379 C.3     1  lig         0.0244
     31 N1         23.5683   29.5511   14.3641 N.pl3   1  lig        -0.3398
     32 O1         23.5168   33.9804   12.0515 O.co2   1  lig        -0.2464
     33 O2         24.0889   31.9847   11.3549 O.co2   1  lig        -0.2464
@<TRIPOS>BOND
     1    27    33    1
     2    27    32    1
     3    27    28    1
     4    28    29    1
     5     9    28    1
     6    10    28    1
     7    29    30    1
     8    11    29    1
     9    12    29    1
    10    30    31    1
    11    13    30    1
    12    14    30    1
    13    26    31    1
    14    20    31    1
    15    24    26   ar
    16    25    26   ar
    17    22    24   ar
    18     8    24    1
    19    23    25   ar
    20    19    25    1
    21    21    23   ar
    22     7    23    1
    23    21    22   ar
    24     5    21    1
    25     6    22    1
    26    19    20   ar
    27    17    19   ar
    28    18    20   ar
    29    16    18   ar
    30     4    18    1
    31    15    17   ar
    32     3    17    1
    33    15    16   ar
    34     1    15    1
    35     2    16    1
@<TRIPOS>SUBSTRUCTURE
     1 lig         1 TEMP              0 ****  ****    0 ROOT


########## Name:		ligand
########## HA_RMSDs:		15.6563
########## HA_RMSDh:		15.6271
########## HA_RMSDm:		10.9864
########## Cluster Size:	1
##########    Grid Score:          -16.608311
##########      Grid_vdw:          -17.553799
##########       Grid_es:            0.945489
##########    Int_energy:            3.085309

@<TRIPOS>MOLECULE
ligand
 33 35 1 0 0
SMALL
No Charge or Current Charge


@<TRIPOS>ATOM
      1 H1         13.5315    9.6204    5.3162 H       1  lig         0.0618
      2 H2         14.6898   11.6978    5.9191 H       1  lig         0.0618
      3 H3         11.0418    9.4974    5.2854 H       1  lig         0.0624
      4 H4         13.4663   13.7545    6.5490 H       1  lig         0.0638
      5 H5          6.2016   10.8913    5.7698 H       1  lig         0.0618
      6 H6          5.9048   13.1826    6.6123 H       1  lig         0.0618
      7 H7          8.4866    9.9512    5.4504 H       1  lig         0.0624
      8 H8          7.8009   14.7196    6.9603 H       1  lig         0.0638
      9 H9         12.2983   17.5044    5.2312 H       1  lig         0.0379
     10 H10        12.9439   15.9819    5.7795 H       1  lig         0.0379
     11 H11        10.0069   15.8762    5.1791 H       1  lig         0.0288
     12 H12        10.4106   17.1068    6.3558 H       1  lig         0.0288
     13 H13        10.1243   15.3842    7.8327 H       1  lig         0.0492
     14 H14        11.8347   15.1446    7.4825 H       1  lig         0.0492
     15 C1         12.9463   10.4961    5.5824 C.ar    1  lig        -0.0611
     16 C2         13.6039   11.6837    5.9343 C.ar    1  lig        -0.0598
     17 C3         11.5487   10.4178    5.5633 C.ar    1  lig        -0.0520
     18 C4         12.9196   12.8522    6.2886 C.ar    1  lig        -0.0376
     19 C5         10.8558   11.5748    5.9205 C.ar    1  lig         0.0076
     20 C6         11.5201   12.8373    6.3008 C.ar    1  lig         0.0501
     21 C7          7.0726   11.5257    5.9213 C.ar    1  lig        -0.0611
     22 C8          6.8927   12.8548    6.3389 C.ar    1  lig        -0.0598
     23 C9          8.3545   10.9835    5.7544 C.ar    1  lig        -0.0520
     24 C10         7.9772   13.7107    6.5972 C.ar    1  lig        -0.0376
     25 C11         9.4301   11.8260    6.0028 C.ar    1  lig         0.0076
     26 C12         9.2792   13.2311    6.4433 C.ar    1  lig         0.0501
     27 C13        12.1299   15.9663    3.7944 C.2     1  lig         0.3561
     28 C14        12.1133   16.4295    5.2350 C.3     1  lig         0.0508
     29 C15        10.7562   16.1674    5.9165 C.3     1  lig        -0.0247
     30 C16        10.8329   15.1210    7.0434 C.3     1  lig         0.0244
     31 N1         10.5428   13.7541    6.5837 N.pl3   1  lig        -0.3398
     32 O1         11.6036   16.7197    2.8338 O.co2   1  lig        -0.2464
     33 O2         12.6202   14.8912    3.4810 O.co2   1  lig        -0.2464
@<TRIPOS>BOND
     1    27    33    1
     2    27    32    1
     3    27    28    1
     4    28    29    1
     5     9    28    1
     6    10    28    1
     7    29    30    1
     8    11    29    1
     9    12    29    1
    10    30    31    1
    11    13    30    1
    12    14    30    1
    13    26    31    1
    14    20    31    1
    15    24    26   ar
    16    25    26   ar
    17    22    24   ar
    18     8    24    1
    19    23    25   ar
    20    19    25    1
    21    21    23   ar
    22     7    23    1
    23    21    22   ar
    24     5    21    1
    25     6    22    1
    26    19    20   ar
    27    17    19   ar
    28    18    20   ar
    29    16    18   ar
    30     4    18    1
    31    15    17   ar
    32     3    17    1
    33    15    16   ar
    34     1    15    1
    35     2    16    1
@<TRIPOS>SUBSTRUCTURE
     1 lig         1 TEMP              0 ****  ****    0 ROOT


########## Name:		ligand
########## HA_RMSDs:		14.8485
########## HA_RMSDh:		14.8323
########## HA_RMSDm:		9.5376
########## Cluster Size:	1
##########    Grid Score:          -16.366415
##########      Grid_vdw:          -16.649384
##########       Grid_es:            0.282969
##########    Int_energy:            5.428161

@<TRIPOS>MOLECULE
ligand
 33 35 1 0 0
SMALL
No Charge or Current Charge


@<TRIPOS>ATOM
      1 H1         18.9347   23.3977    4.3747 H       1  lig         0.0618
      2 H2         18.9133   21.2125    5.4904 H       1  lig         0.0618
      3 H3         16.8158   24.6257    3.9089 H       1  lig         0.0624
      4 H4         16.8109   20.1063    6.1830 H       1  lig         0.0638
      5 H5         11.8686   25.6641    3.6799 H       1  lig         0.0618
      6 H6         10.4315   23.8551    4.5227 H       1  lig         0.0618
      7 H7         14.3465   25.4048    3.6687 H       1  lig         0.0624
      8 H8         11.3448   21.8291    5.5902 H       1  lig         0.0638
      9 H9         13.2295   20.3964    3.5195 H       1  lig         0.0379
     10 H10        14.4626   19.1863    3.7443 H       1  lig         0.0379
     11 H11        12.9518   18.2467    5.6777 H       1  lig         0.0288
     12 H12        11.9208   19.6346    5.4082 H       1  lig         0.0288
     13 H13        14.6869   19.5864    6.6041 H       1  lig         0.0492
     14 H14        13.2219   20.3727    7.1883 H       1  lig         0.0492
     15 C1         17.9837   22.9572    4.6605 C.ar    1  lig        -0.0611
     16 C2         17.9659   21.7054    5.2923 C.ar    1  lig        -0.0598
     17 C3         16.7987   23.6534    4.3942 C.ar    1  lig        -0.0520
     18 C4         16.7817   21.0742    5.6902 C.ar    1  lig        -0.0376
     19 C5         15.6113   23.0314    4.7810 C.ar    1  lig         0.0076
     20 C6         15.5608   21.7123    5.4425 C.ar    1  lig         0.0501
     21 C7         12.3214   24.7825    4.1292 C.ar    1  lig        -0.0611
     22 C8         11.4952   23.7828    4.6689 C.ar    1  lig        -0.0598
     23 C9         13.7156   24.6381    4.1042 C.ar    1  lig        -0.0520
     24 C10        12.0159   22.5997    5.2208 C.ar    1  lig        -0.0376
     25 C11        14.2364   23.4736    4.6529 C.ar    1  lig         0.0076
     26 C12        13.3975   22.3996    5.2307 C.ar    1  lig         0.0501
     27 C13        12.5982   18.4572    2.9721 C.2     1  lig         0.3561
     28 C14        13.3974   19.3772    3.8695 C.3     1  lig         0.0508
     29 C15        12.9543   19.2848    5.3426 C.3     1  lig        -0.0247
     30 C16        13.8053   20.1505    6.2897 C.3     1  lig         0.0244
     31 N1         14.2452   21.4145    5.6790 N.pl3   1  lig        -0.3398
     32 O1         11.4753   18.8774    2.3978 O.co2   1  lig        -0.2464
     33 O2         12.9610   17.3095    2.7587 O.co2   1  lig        -0.2464
@<TRIPOS>BOND
     1    27    33    1
     2    27    32    1
     3    27    28    1
     4    28    29    1
     5     9    28    1
     6    10    28    1
     7    29    30    1
     8    11    29    1
     9    12    29    1
    10    30    31    1
    11    13    30    1
    12    14    30    1
    13    26    31    1
    14    20    31    1
    15    24    26   ar
    16    25    26   ar
    17    22    24   ar
    18     8    24    1
    19    23    25   ar
    20    19    25    1
    21    21    23   ar
    22     7    23    1
    23    21    22   ar
    24     5    21    1
    25     6    22    1
    26    19    20   ar
    27    17    19   ar
    28    18    20   ar
    29    16    18   ar
    30     4    18    1
    31    15    17   ar
    32     3    17    1
    33    15    16   ar
    34     1    15    1
    35     2    16    1
@<TRIPOS>SUBSTRUCTURE
     1 lig         1 TEMP              0 ****  ****    0 ROOT


########## Name:		ligand
########## HA_RMSDs:		13.7781
########## HA_RMSDh:		13.6341
########## HA_RMSDm:		8.7367
########## Cluster Size:	1
##########    Grid Score:          -16.353695
##########      Grid_vdw:          -16.144571
##########       Grid_es:           -0.209124
##########    Int_energy:            2.927983

@<TRIPOS>MOLECULE
ligand
 33 35 1 0 0
SMALL
No Charge or Current Charge


@<TRIPOS>ATOM
      1 H1         26.4882   13.0827   12.1329 H       1  lig         0.0618
      2 H2         24.3704   11.9878   11.5526 H       1  lig         0.0618
      3 H3         27.6832   14.5265   10.4890 H       1  lig         0.0624
      4 H4         23.3286   12.2306    9.3212 H       1  lig         0.0638
      5 H5         28.7628   16.9350    6.1718 H       1  lig         0.0618
      6 H6         27.1707   16.4810    4.3533 H       1  lig         0.0618
      7 H7         28.4688   15.8641    8.4020 H       1  lig         0.0624
      8 H8         25.1181   15.1578    4.6923 H       1  lig         0.0638
      9 H9         22.0992   12.2457    4.4742 H       1  lig         0.0379
     10 H10        22.7248   10.6197    4.4783 H       1  lig         0.0379
     11 H11        24.5732   12.0347    5.2336 H       1  lig         0.0288
     12 H12        23.9447   11.2865    6.6852 H       1  lig         0.0288
     13 H13        22.6122   13.3029    7.2260 H       1  lig         0.0492
     14 H14        23.1952   14.0903    5.7612 H       1  lig         0.0492
     15 C1         26.0724   13.2244   11.1393 C.ar    1  lig        -0.0611
     16 C2         24.8658   12.5952   10.8007 C.ar    1  lig        -0.0598
     17 C3         26.7507   14.0361   10.2222 C.ar    1  lig        -0.0520
     18 C4         24.2681   12.7298    9.5422 C.ar    1  lig        -0.0376
     19 C5         26.1675   14.1730    8.9622 C.ar    1  lig         0.0076
     20 C6         24.9017   13.5188    8.5752 C.ar    1  lig         0.0501
     21 C7         27.8788   16.3319    6.3690 C.ar    1  lig        -0.0611
     22 C8         26.9390   16.1313    5.3443 C.ar    1  lig        -0.0598
     23 C9         27.7299   15.7206    7.6217 C.ar    1  lig        -0.0520
     24 C10        25.8012   15.3252    5.5206 C.ar    1  lig        -0.0376
     25 C11        26.6048   14.9273    7.8037 C.ar    1  lig         0.0076
     26 C12        25.5937   14.6936    6.7482 C.ar    1  lig         0.0501
     27 C13        21.3469   11.0714    6.0597 C.2     1  lig         0.3561
     28 C14        22.4751   11.4577    5.1279 C.3     1  lig         0.0508
     29 C15        23.7023   11.9955    5.8893 C.3     1  lig        -0.0247
     30 C16        23.4607   13.3696    6.5405 C.3     1  lig         0.0244
     31 N1         24.6285   13.8721    7.2806 N.pl3   1  lig        -0.3398
     32 O1         20.0811   11.2980    5.7224 O.co2   1  lig        -0.2464
     33 O2         21.5709   10.5491    7.1420 O.co2   1  lig        -0.2464
@<TRIPOS>BOND
     1    27    33    1
     2    27    32    1
     3    27    28    1
     4    28    29    1
     5     9    28    1
     6    10    28    1
     7    29    30    1
     8    11    29    1
     9    12    29    1
    10    30    31    1
    11    13    30    1
    12    14    30    1
    13    26    31    1
    14    20    31    1
    15    24    26   ar
    16    25    26   ar
    17    22    24   ar
    18     8    24    1
    19    23    25   ar
    20    19    25    1
    21    21    23   ar
    22     7    23    1
    23    21    22   ar
    24     5    21    1
    25     6    22    1
    26    19    20   ar
    27    17    19   ar
    28    18    20   ar
    29    16    18   ar
    30     4    18    1
    31    15    17   ar
    32     3    17    1
    33    15    16   ar
    34     1    15    1
    35     2    16    1
@<TRIPOS>SUBSTRUCTURE
     1 lig         1 TEMP              0 ****  ****    0 ROOT


########## Name:		ligand
########## HA_RMSDs:		13.4504
########## HA_RMSDh:		13.2338
########## HA_RMSDm:		10.8048
########## Cluster Size:	1
##########    Grid Score:          -16.328388
##########      Grid_vdw:          -16.196548
##########       Grid_es:           -0.131841
##########    Int_energy:            3.634610

@<TRIPOS>MOLECULE
ligand
 33 35 1 0 0
SMALL
No Charge or Current Charge


@<TRIPOS>ATOM
      1 H1         22.8370   14.1982    4.8560 H       1  lig         0.0618
      2 H2         25.2064   14.3627    5.4719 H       1  lig         0.0618
      3 H3         21.3345   12.5383    5.9523 H       1  lig         0.0624
      4 H4         26.2310   12.8896    7.1759 H       1  lig         0.0638
      5 H5         19.7939    8.7703    8.9579 H       1  lig         0.0618
      6 H6         21.5984    7.7519   10.2825 H       1  lig         0.0618
      7 H7         20.2842   10.6403    7.3862 H       1  lig         0.0624
      8 H8         23.8938    8.6516   10.3024 H       1  lig         0.0638
      9 H9         24.5946   12.0513   11.2975 H       1  lig         0.0379
     10 H10        25.4718   10.6394   11.8197 H       1  lig         0.0379
     11 H11        27.4371   11.6543   10.2836 H       1  lig         0.0288
     12 H12        26.1675   12.6795    9.6520 H       1  lig         0.0288
     13 H13        25.8925    9.6512    9.6320 H       1  lig         0.0492
     14 H14        26.6619   10.5440    8.3218 H       1  lig         0.0492
     15 C1         23.2362   13.5288    5.6127 C.ar    1  lig        -0.0611
     16 C2         24.5913   13.6144    5.9632 C.ar    1  lig        -0.0598
     17 C3         22.3854   12.5991    6.2225 C.ar    1  lig        -0.0520
     18 C4         25.1780   12.7874    6.9281 C.ar    1  lig        -0.0376
     19 C5         22.9605   11.7651    7.1818 C.ar    1  lig         0.0076
     20 C6         24.3843   11.8280    7.5674 C.ar    1  lig         0.0501
     21 C7         20.7945    9.1961    8.9206 C.ar    1  lig        -0.0611
     22 C8         21.8056    8.6517    9.7298 C.ar    1  lig        -0.0598
     23 C9         21.0647   10.2375    8.0219 C.ar    1  lig        -0.0520
     24 C10        23.1284    9.1253    9.6937 C.ar    1  lig        -0.0376
     25 C11        22.3688   10.7134    7.9856 C.ar    1  lig         0.0076
     26 C12        23.4593   10.1653    8.8232 C.ar    1  lig         0.0501
     27 C13        26.2552   12.5108   12.5183 C.2     1  lig         0.3561
     28 C14        25.5997   11.6575   11.4540 C.3     1  lig         0.0508
     29 C15        26.3607   11.7084   10.1149 C.3     1  lig        -0.0247
     30 C16        25.9194   10.6175    9.1221 C.3     1  lig         0.0244
     31 N1         24.5985   10.8761    8.5284 N.pl3   1  lig        -0.3398
     32 O1         25.5263   13.0896   13.4674 O.co2   1  lig        -0.2464
     33 O2         27.4641   12.6920   12.5281 O.co2   1  lig        -0.2464
@<TRIPOS>BOND
     1    27    33    1
     2    27    32    1
     3    27    28    1
     4    28    29    1
     5     9    28    1
     6    10    28    1
     7    29    30    1
     8    11    29    1
     9    12    29    1
    10    30    31    1
    11    13    30    1
    12    14    30    1
    13    26    31    1
    14    20    31    1
    15    24    26   ar
    16    25    26   ar
    17    22    24   ar
    18     8    24    1
    19    23    25   ar
    20    19    25    1
    21    21    23   ar
    22     7    23    1
    23    21    22   ar
    24     5    21    1
    25     6    22    1
    26    19    20   ar
    27    17    19   ar
    28    18    20   ar
    29    16    18   ar
    30     4    18    1
    31    15    17   ar
    32     3    17    1
    33    15    16   ar
    34     1    15    1
    35     2    16    1
@<TRIPOS>SUBSTRUCTURE
     1 lig         1 TEMP              0 ****  ****    0 ROOT


########## Name:		ligand
########## HA_RMSDs:		13.3946
########## HA_RMSDh:		13.3864
########## HA_RMSDm:		10.8316
########## Cluster Size:	2
##########    Grid Score:          -16.286913
##########      Grid_vdw:          -16.632305
##########       Grid_es:            0.345392
##########    Int_energy:            4.696174

@<TRIPOS>MOLECULE
ligand
 33 35 1 0 0
SMALL
No Charge or Current Charge


@<TRIPOS>ATOM
      1 H1         29.3580   16.7328    6.8358 H       1  lig         0.0618
      2 H2         30.1123   15.2869    8.6690 H       1  lig         0.0618
      3 H3         27.0870   16.4710    5.8413 H       1  lig         0.0624
      4 H4         28.6884   13.4918    9.6039 H       1  lig         0.0638
      5 H5         22.4491   14.6379    4.9845 H       1  lig         0.0618
      6 H6         21.8873   12.6719    6.3510 H       1  lig         0.0618
      7 H7         24.6782   15.7294    5.2015 H       1  lig         0.0624
      8 H8         23.3713   11.8312    8.1315 H       1  lig         0.0638
      9 H9         26.5042   14.0072   11.1668 H       1  lig         0.0379
     10 H10        25.2807   13.7965   12.3891 H       1  lig         0.0379
     11 H11        24.2853   12.6512   10.5334 H       1  lig         0.0288
     12 H12        25.1211   11.3340   11.3259 H       1  lig         0.0288
     13 H13        25.7346   11.0469    9.0775 H       1  lig         0.0492
     14 H14        27.1384   11.8274    9.8027 H       1  lig         0.0492
     15 C1         28.6920   15.9610    7.2112 C.ar    1  lig        -0.0611
     16 C2         29.1212   15.1278    8.2543 C.ar    1  lig        -0.0598
     17 C3         27.4188   15.8206    6.6462 C.ar    1  lig        -0.0520
     18 C4         28.3211   14.1124    8.7910 C.ar    1  lig        -0.0376
     19 C5         26.6144   14.8077    7.1691 C.ar    1  lig         0.0076
     20 C6         27.0406   13.9118    8.2625 C.ar    1  lig         0.0501
     21 C7         23.1453   14.2969    5.7481 C.ar    1  lig        -0.0611
     22 C8         22.7903   13.2147    6.5703 C.ar    1  lig        -0.0598
     23 C9         24.4032   14.9069    5.8522 C.ar    1  lig        -0.0520
     24 C10        23.6630   12.6968    7.5429 C.ar    1  lig        -0.0376
     25 C11        25.2678   14.4031    6.8151 C.ar    1  lig         0.0076
     26 C12        24.9284   13.2654    7.6991 C.ar    1  lig         0.0501
     27 C13        27.0200   12.5609   12.6163 C.2     1  lig         0.3561
     28 C14        25.9833   13.2533   11.7583 C.3     1  lig         0.0508
     29 C15        25.2758   12.2781   10.7974 C.3     1  lig        -0.0247
     30 C16        26.0906   11.9778    9.5259 C.3     1  lig         0.0244
     31 N1         26.0092   13.0487    8.5206 N.pl3   1  lig        -0.3398
     32 O1         27.1907   12.9098   13.8877 O.co2   1  lig        -0.2464
     33 O2         27.7260   11.6722   12.1622 O.co2   1  lig        -0.2464
@<TRIPOS>BOND
     1    27    33    1
     2    27    32    1
     3    27    28    1
     4    28    29    1
     5     9    28    1
     6    10    28    1
     7    29    30    1
     8    11    29    1
     9    12    29    1
    10    30    31    1
    11    13    30    1
    12    14    30    1
    13    26    31    1
    14    20    31    1
    15    24    26   ar
    16    25    26   ar
    17    22    24   ar
    18     8    24    1
    19    23    25   ar
    20    19    25    1
    21    21    23   ar
    22     7    23    1
    23    21    22   ar
    24     5    21    1
    25     6    22    1
    26    19    20   ar
    27    17    19   ar
    28    18    20   ar
    29    16    18   ar
    30     4    18    1
    31    15    17   ar
    32     3    17    1
    33    15    16   ar
    34     1    15    1
    35     2    16    1
@<TRIPOS>SUBSTRUCTURE
     1 lig         1 TEMP              0 ****  ****    0 ROOT


########## Name:		ligand
########## HA_RMSDs:		14.1012
########## HA_RMSDh:		13.6833
########## HA_RMSDm:		10.6634
########## Cluster Size:	1
##########    Grid Score:          -16.216923
##########      Grid_vdw:          -15.962122
##########       Grid_es:           -0.254800
##########    Int_energy:            1.905985

@<TRIPOS>MOLECULE
ligand
 33 35 1 0 0
SMALL
No Charge or Current Charge


@<TRIPOS>ATOM
      1 H1         22.0964   15.2220    4.4378 H       1  lig         0.0618
      2 H2         21.5352   13.3021    5.8589 H       1  lig         0.0618
      3 H3         24.3794   16.2229    4.4696 H       1  lig         0.0624
      4 H4         23.1762   12.2812    7.4044 H       1  lig         0.0638
      5 H5         29.2085   17.0210    5.7531 H       1  lig         0.0618
      6 H6         30.0170   15.5508    7.5512 H       1  lig         0.0618
      7 H7         26.8605   16.8438    4.9390 H       1  lig         0.0624
      8 H8         28.6556   13.7106    8.4673 H       1  lig         0.0638
      9 H9         26.1319   10.8697   10.8679 H       1  lig         0.0379
     10 H10        27.5617   11.8572   10.9944 H       1  lig         0.0379
     11 H11        26.2824   13.8257   10.0937 H       1  lig         0.0288
     12 H12        24.7830   12.9404   10.2670 H       1  lig         0.0288
     13 H13        25.1296   11.5941    8.3973 H       1  lig         0.0492
     14 H14        26.8833   11.7504    8.4707 H       1  lig         0.0492
     15 C1         22.8553   14.8100    5.0970 C.ar    1  lig        -0.0611
     16 C2         22.5373   13.7170    5.9161 C.ar    1  lig        -0.0598
     17 C3         24.1343   15.3790    5.1091 C.ar    1  lig        -0.0520
     18 C4         23.4602   13.1316    6.7905 C.ar    1  lig        -0.0376
     19 C5         25.0613   14.8076    5.9813 C.ar    1  lig         0.0076
     20 C6         24.7542   13.6608    6.8591 C.ar    1  lig         0.0501
     21 C7         28.5629   16.2323    6.1341 C.ar    1  lig        -0.0611
     22 C8         29.0535   15.3536    7.1142 C.ar    1  lig        -0.0598
     23 C9         27.2386   16.1503    5.6817 C.ar    1  lig        -0.0520
     24 C10        28.2557   14.3444    7.6804 C.ar    1  lig        -0.0376
     25 C11        26.4470   15.1517    6.2336 C.ar    1  lig         0.0076
     26 C12        26.9294   14.2080    7.2670 C.ar    1  lig         0.0501
     27 C13        26.0594   12.2319   12.4797 C.2     1  lig         0.3561
     28 C14        26.4751   11.8858   11.0663 C.3     1  lig         0.0508
     29 C15        25.8431   12.8296   10.0247 C.3     1  lig        -0.0247
     30 C16        25.9435   12.2993    8.5827 C.3     1  lig         0.0244
     31 N1         25.8868   13.3646    7.5698 N.pl3   1  lig        -0.3398
     32 O1         24.9011   11.8018   12.9704 O.co2   1  lig        -0.2464
     33 O2         26.7723   12.9162   13.1994 O.co2   1  lig        -0.2464
@<TRIPOS>BOND
     1    27    33    1
     2    27    32    1
     3    27    28    1
     4    28    29    1
     5     9    28    1
     6    10    28    1
     7    29    30    1
     8    11    29    1
     9    12    29    1
    10    30    31    1
    11    13    30    1
    12    14    30    1
    13    26    31    1
    14    20    31    1
    15    24    26   ar
    16    25    26   ar
    17    22    24   ar
    18     8    24    1
    19    23    25   ar
    20    19    25    1
    21    21    23   ar
    22     7    23    1
    23    21    22   ar
    24     5    21    1
    25     6    22    1
    26    19    20   ar
    27    17    19   ar
    28    18    20   ar
    29    16    18   ar
    30     4    18    1
    31    15    17   ar
    32     3    17    1
    33    15    16   ar
    34     1    15    1
    35     2    16    1
@<TRIPOS>SUBSTRUCTURE
     1 lig         1 TEMP              0 ****  ****    0 ROOT


########## Name:		ligand
########## HA_RMSDs:		13.8074
########## HA_RMSDh:		13.5124
########## HA_RMSDm:		9.6085
########## Cluster Size:	1
##########    Grid Score:          -16.215170
##########      Grid_vdw:          -15.228531
##########       Grid_es:           -0.986638
##########    Int_energy:            2.432303

@<TRIPOS>MOLECULE
ligand
 33 35 1 0 0
SMALL
No Charge or Current Charge


@<TRIPOS>ATOM
      1 H1         22.6394   12.5240    5.8624 H       1  lig         0.0618
      2 H2         23.7220   14.3798    7.0474 H       1  lig         0.0618
      3 H3         22.4658   10.2628    6.8975 H       1  lig         0.0624
      4 H4         24.7142   14.1072    9.2979 H       1  lig         0.0638
      5 H5         23.0050    6.5071   10.2455 H       1  lig         0.0618
      6 H6         24.2980    7.1311   12.2422 H       1  lig         0.0618
      7 H7         22.6022    8.1691    8.4336 H       1  lig         0.0624
      8 H8         25.0524    9.4408   12.6606 H       1  lig         0.0638
      9 H9         28.1250   11.7964   12.7318 H       1  lig         0.0379
     10 H10        27.3378   10.5185   11.8473 H       1  lig         0.0379
     11 H11        26.8977   12.6320   10.1100 H       1  lig         0.0288
     12 H12        27.1175   13.5275   11.5972 H       1  lig         0.0288
     13 H13        24.8515   13.2541   11.7570 H       1  lig         0.0492
     14 H14        25.3532   11.7749   12.5730 H       1  lig         0.0492
     15 C1         23.0568   12.3511    6.8503 C.ar    1  lig        -0.0611
     16 C2         23.6826   13.4069    7.5287 C.ar    1  lig        -0.0598
     17 C3         22.9557   11.0779    7.4235 C.ar    1  lig        -0.0520
     18 C4         24.2434   13.2622    8.8029 C.ar    1  lig        -0.0376
     19 C5         23.5164   10.9200    8.6912 C.ar    1  lig         0.0076
     20 C6         24.1861   12.0108    9.4272 C.ar    1  lig         0.0501
     21 C7         23.3282    7.5378   10.3765 C.ar    1  lig        -0.0611
     22 C8         24.0085    7.9027   11.5502 C.ar    1  lig        -0.0598
     23 C9         23.1110    8.4621    9.3451 C.ar    1  lig        -0.0520
     24 C10        24.4928    9.2054   11.7593 C.ar    1  lig        -0.0376
     25 C11        23.5826    9.7523    9.5483 C.ar    1  lig         0.0076
     26 C12        24.3027   10.1730   10.7712 C.ar    1  lig         0.0501
     27 C13        29.0466   11.3810   10.8780 C.2     1  lig         0.3561
     28 C14        27.8037   11.4965   11.7336 C.3     1  lig         0.0508
     29 C15        26.8214   12.5550   11.1955 C.3     1  lig        -0.0247
     30 C16        25.3615   12.2984   11.6123 C.3     1  lig         0.0244
     31 N1         24.6100   11.5053   10.6274 N.pl3   1  lig        -0.3398
     32 O1         30.1216   12.1177   11.1406 O.co2   1  lig        -0.2464
     33 O2         29.0905   10.6152    9.9261 O.co2   1  lig        -0.2464
@<TRIPOS>BOND
     1    27    33    1
     2    27    32    1
     3    27    28    1
     4    28    29    1
     5     9    28    1
     6    10    28    1
     7    29    30    1
     8    11    29    1
     9    12    29    1
    10    30    31    1
    11    13    30    1
    12    14    30    1
    13    26    31    1
    14    20    31    1
    15    24    26   ar
    16    25    26   ar
    17    22    24   ar
    18     8    24    1
    19    23    25   ar
    20    19    25    1
    21    21    23   ar
    22     7    23    1
    23    21    22   ar
    24     5    21    1
    25     6    22    1
    26    19    20   ar
    27    17    19   ar
    28    18    20   ar
    29    16    18   ar
    30     4    18    1
    31    15    17   ar
    32     3    17    1
    33    15    16   ar
    34     1    15    1
    35     2    16    1
@<TRIPOS>SUBSTRUCTURE
     1 lig         1 TEMP              0 ****  ****    0 ROOT


########## Name:		ligand
########## HA_RMSDs:		13.8261
########## HA_RMSDh:		13.7578
########## HA_RMSDm:		9.3344
########## Cluster Size:	1
##########    Grid Score:          -15.991627
##########      Grid_vdw:          -14.740779
##########       Grid_es:           -1.250848
##########    Int_energy:            3.392080

@<TRIPOS>MOLECULE
ligand
 33 35 1 0 0
SMALL
No Charge or Current Charge


@<TRIPOS>ATOM
      1 H1         25.2454   14.1748    9.1384 H       1  lig         0.0618
      2 H2         26.7446   13.3028   10.8740 H       1  lig         0.0618
      3 H3         23.2623   12.8702    8.3765 H       1  lig         0.0624
      4 H4         26.3918   11.0944   11.9332 H       1  lig         0.0638
      5 H5         19.9153    9.0961    7.9782 H       1  lig         0.0618
      6 H6         20.4438    7.1445    9.3782 H       1  lig         0.0618
      7 H7         21.4097   11.0896    7.9776 H       1  lig         0.0624
      8 H8         22.3074    7.1409   10.9925 H       1  lig         0.0638
      9 H9         27.2078    7.8708   12.5278 H       1  lig         0.0379
     10 H10        27.2730    6.2314   11.9417 H       1  lig         0.0379
     11 H11        24.9316    6.4096   11.8433 H       1  lig         0.0288
     12 H12        25.2239    7.3492   10.3964 H       1  lig         0.0288
     13 H13        25.5443    9.1360   12.6322 H       1  lig         0.0492
     14 H14        24.0391    8.2456   12.8488 H       1  lig         0.0492
     15 C1         25.0436   13.1998    9.5730 C.ar    1  lig        -0.0611
     16 C2         25.9015   12.6942   10.5604 C.ar    1  lig        -0.0598
     17 C3         23.9283   12.4737    9.1384 C.ar    1  lig        -0.0520
     18 C4         25.7074   11.4478   11.1669 C.ar    1  lig        -0.0376
     19 C5         23.7279   11.2269    9.7317 C.ar    1  lig         0.0076
     20 C6         24.6165   10.6662   10.7689 C.ar    1  lig         0.0501
     21 C7         20.7585    9.1392    8.6646 C.ar    1  lig        -0.0611
     22 C8         21.0156    8.0468    9.5095 C.ar    1  lig        -0.0598
     23 C9         21.6028   10.2581    8.6460 C.ar    1  lig        -0.0520
     24 C10        22.1152    8.0208   10.3845 C.ar    1  lig        -0.0376
     25 C11        22.6880   10.2406    9.5123 C.ar    1  lig         0.0076
     26 C12        22.9899    9.1083   10.4167 C.ar    1  lig         0.0501
     27 C13        27.7114    7.7409   10.4813 C.2     1  lig         0.3561
     28 C14        26.9410    7.2359   11.6820 C.3     1  lig         0.0508
     29 C15        25.4163    7.3136   11.4717 C.3     1  lig        -0.0247
     30 C16        24.7771    8.5625   12.1059 C.3     1  lig         0.0244
     31 N1         24.1220    9.4392   11.1229 N.pl3   1  lig        -0.3398
     32 O1         28.0463    9.0235   10.3809 O.co2   1  lig        -0.2464
     33 O2         28.0383    6.9867    9.5764 O.co2   1  lig        -0.2464
@<TRIPOS>BOND
     1    27    33    1
     2    27    32    1
     3    27    28    1
     4    28    29    1
     5     9    28    1
     6    10    28    1
     7    29    30    1
     8    11    29    1
     9    12    29    1
    10    30    31    1
    11    13    30    1
    12    14    30    1
    13    26    31    1
    14    20    31    1
    15    24    26   ar
    16    25    26   ar
    17    22    24   ar
    18     8    24    1
    19    23    25   ar
    20    19    25    1
    21    21    23   ar
    22     7    23    1
    23    21    22   ar
    24     5    21    1
    25     6    22    1
    26    19    20   ar
    27    17    19   ar
    28    18    20   ar
    29    16    18   ar
    30     4    18    1
    31    15    17   ar
    32     3    17    1
    33    15    16   ar
    34     1    15    1
    35     2    16    1
@<TRIPOS>SUBSTRUCTURE
     1 lig         1 TEMP              0 ****  ****    0 ROOT


########## Name:		ligand
########## HA_RMSDs:		13.5207
########## HA_RMSDh:		13.5155
########## HA_RMSDm:		11.2828
########## Cluster Size:	1
##########    Grid Score:          -15.873093
##########      Grid_vdw:          -15.896060
##########       Grid_es:            0.022967
##########    Int_energy:            4.204419

@<TRIPOS>MOLECULE
ligand
 33 35 1 0 0
SMALL
No Charge or Current Charge


@<TRIPOS>ATOM
      1 H1         23.4061   30.0399   10.9177 H       1  lig         0.0618
      2 H2         21.5937   29.6428   12.5233 H       1  lig         0.0618
      3 H3         23.1494   29.4374    8.5123 H       1  lig         0.0624
      4 H4         19.4458   28.6095   11.8581 H       1  lig         0.0638
      5 H5         21.0957   27.6522    4.2461 H       1  lig         0.0618
      6 H6         18.8766   26.6389    4.5574 H       1  lig         0.0618
      7 H7         22.3342   28.5979    6.1902 H       1  lig         0.0624
      8 H8         17.6827   26.7064    6.7135 H       1  lig         0.0638
      9 H9         14.7956   28.9413   10.6782 H       1  lig         0.0379
     10 H10        15.0006   27.3329   10.0407 H       1  lig         0.0379
     11 H11        17.3405   29.2042   10.8102 H       1  lig         0.0288
     12 H12        16.6411   29.1492    9.2072 H       1  lig         0.0288
     13 H13        17.2246   26.7302    8.9961 H       1  lig         0.0492
     14 H14        17.9832   26.7882   10.5856 H       1  lig         0.0492
     15 C1         22.4817   29.5854   10.5727 C.ar    1  lig        -0.0611
     16 C2         21.4455   29.3502   11.4879 C.ar    1  lig        -0.0598
     17 C3         22.3466   29.2494    9.2203 C.ar    1  lig        -0.0520
     18 C4         20.2265   28.7693   11.1195 C.ar    1  lig        -0.0376
     19 C5         21.1379   28.6642    8.8424 C.ar    1  lig         0.0076
     20 C6         20.0317   28.3992    9.7838 C.ar    1  lig         0.0501
     21 C7         20.6169   27.6952    5.2224 C.ar    1  lig        -0.0611
     22 C8         19.3218   27.1740    5.3782 C.ar    1  lig        -0.0598
     23 C9         21.3275   28.2147    6.3135 C.ar    1  lig        -0.0520
     24 C10        18.6674   27.1567    6.6219 C.ar    1  lig        -0.0376
     25 C11        20.6840   28.2053    7.5440 C.ar    1  lig         0.0076
     26 C12        19.3206   27.6653    7.7459 C.ar    1  lig         0.0501
     27 C13        15.5883   27.5847   12.0888 C.2     1  lig         0.3561
     28 C14        15.4750   28.0881   10.6662 C.3     1  lig         0.0508
     29 C15        16.8324   28.5495   10.1008 C.3     1  lig        -0.0247
     30 C16        17.7519   27.3825    9.6966 C.3     1  lig         0.0244
     31 N1         19.0095   27.8258    9.0754 N.pl3   1  lig        -0.3398
     32 O1         14.5023   27.4144   12.8364 O.co2   1  lig        -0.2464
     33 O2         16.6760   27.3286   12.5847 O.co2   1  lig        -0.2464
@<TRIPOS>BOND
     1    27    33    1
     2    27    32    1
     3    27    28    1
     4    28    29    1
     5     9    28    1
     6    10    28    1
     7    29    30    1
     8    11    29    1
     9    12    29    1
    10    30    31    1
    11    13    30    1
    12    14    30    1
    13    26    31    1
    14    20    31    1
    15    24    26   ar
    16    25    26   ar
    17    22    24   ar
    18     8    24    1
    19    23    25   ar
    20    19    25    1
    21    21    23   ar
    22     7    23    1
    23    21    22   ar
    24     5    21    1
    25     6    22    1
    26    19    20   ar
    27    17    19   ar
    28    18    20   ar
    29    16    18   ar
    30     4    18    1
    31    15    17   ar
    32     3    17    1
    33    15    16   ar
    34     1    15    1
    35     2    16    1
@<TRIPOS>SUBSTRUCTURE
     1 lig         1 TEMP              0 ****  ****    0 ROOT


########## Name:		ligand
########## HA_RMSDs:		14.2626
########## HA_RMSDh:		14.1331
########## HA_RMSDm:		8.2452
########## Cluster Size:	1
##########    Grid Score:          -15.751742
##########      Grid_vdw:          -15.307191
##########       Grid_es:           -0.444552
##########    Int_energy:            4.035531

@<TRIPOS>MOLECULE
ligand
 33 35 1 0 0
SMALL
No Charge or Current Charge


@<TRIPOS>ATOM
      1 H1         30.4361   15.5666   16.2654 H       1  lig         0.0618
      2 H2         28.5778   13.9681   16.3764 H       1  lig         0.0618
      3 H3         31.9803   15.6110   14.3089 H       1  lig         0.0624
      4 H4         28.1541   12.3126   14.5866 H       1  lig         0.0638
      5 H5         34.0901   14.3641    9.8817 H       1  lig         0.0618
      6 H6         33.0466   12.4212    8.7936 H       1  lig         0.0618
      7 H7         33.2496   15.1803   12.0806 H       1  lig         0.0624
      8 H8         31.0157   11.3411    9.6810 H       1  lig         0.0638
      9 H9         26.1176   11.5482    9.9999 H       1  lig         0.0379
     10 H10        26.2182   10.6773   11.5054 H       1  lig         0.0379
     11 H11        28.5412   12.1719   10.1071 H       1  lig         0.0288
     12 H12        28.2712   10.4441   10.0467 H       1  lig         0.0288
     13 H13        29.5644   10.1945   11.8588 H       1  lig         0.0492
     14 H14        28.3027   10.9832   12.8031 H       1  lig         0.0492
     15 C1         30.2928   14.8621   15.4509 C.ar    1  lig        -0.0611
     16 C2         29.2363   13.9421   15.5130 C.ar    1  lig        -0.0598
     17 C3         31.1654   14.8936   14.3565 C.ar    1  lig        -0.0520
     18 C4         28.9876   13.0047   14.5037 C.ar    1  lig        -0.0376
     19 C5         30.9309   13.9597   13.3469 C.ar    1  lig         0.0076
     20 C6         29.8308   12.9758   13.3869 C.ar    1  lig         0.0501
     21 C7         33.2029   13.9134   10.3219 C.ar    1  lig        -0.0611
     22 C8         32.5722   12.8462    9.6610 C.ar    1  lig        -0.0598
     23 C9         32.7467   14.3688   11.5667 C.ar    1  lig        -0.0520
     24 C10        31.4515   12.1909   10.1994 C.ar    1  lig        -0.0376
     25 C11        31.6363   13.7287   12.1013 C.ar    1  lig         0.0076
     26 C12        30.9460   12.6022   11.4340 C.ar    1  lig         0.0501
     27 C13        26.3509   12.8120   11.6752 C.2     1  lig         0.3561
     28 C14        26.6448   11.5144   10.9541 C.3     1  lig         0.0508
     29 C15        28.1494   11.3286   10.6773 C.3     1  lig        -0.0247
     30 C16        28.9814   11.1139   11.9549 C.3     1  lig         0.0244
     31 N1         29.8983   12.2279   12.2417 N.pl3   1  lig        -0.3398
     32 O1         26.3988   13.9728   11.0291 O.co2   1  lig        -0.2464
     33 O2         26.0690   12.8250   12.8647 O.co2   1  lig        -0.2464
@<TRIPOS>BOND
     1    27    33    1
     2    27    32    1
     3    27    28    1
     4    28    29    1
     5     9    28    1
     6    10    28    1
     7    29    30    1
     8    11    29    1
     9    12    29    1
    10    30    31    1
    11    13    30    1
    12    14    30    1
    13    26    31    1
    14    20    31    1
    15    24    26   ar
    16    25    26   ar
    17    22    24   ar
    18     8    24    1
    19    23    25   ar
    20    19    25    1
    21    21    23   ar
    22     7    23    1
    23    21    22   ar
    24     5    21    1
    25     6    22    1
    26    19    20   ar
    27    17    19   ar
    28    18    20   ar
    29    16    18   ar
    30     4    18    1
    31    15    17   ar
    32     3    17    1
    33    15    16   ar
    34     1    15    1
    35     2    16    1
@<TRIPOS>SUBSTRUCTURE
     1 lig         1 TEMP              0 ****  ****    0 ROOT


########## Name:		ligand
########## HA_RMSDs:		15.8654
########## HA_RMSDh:		15.3728
########## HA_RMSDm:		11.8941
########## Cluster Size:	1
##########    Grid Score:          -15.484005
##########      Grid_vdw:          -15.245664
##########       Grid_es:           -0.238341
##########    Int_energy:            2.844130

@<TRIPOS>MOLECULE
ligand
 33 35 1 0 0
SMALL
No Charge or Current Charge


@<TRIPOS>ATOM
      1 H1          9.8915    7.8653   11.6892 H       1  lig         0.0618
      2 H2         10.0234    7.0679    9.3724 H       1  lig         0.0618
      3 H3         11.7999    7.5640   13.2646 H       1  lig         0.0624
      4 H4         12.0237    5.9098    8.4886 H       1  lig         0.0638
      5 H5         16.3191    6.1536   15.0515 H       1  lig         0.0618
      6 H6         17.6721    4.8779   13.4423 H       1  lig         0.0618
      7 H7         14.0451    6.9587   14.4285 H       1  lig         0.0624
      8 H8         16.9685    4.5309   11.1049 H       1  lig         0.0638
      9 H9         16.6512    7.4014    7.7932 H       1  lig         0.0379
     10 H10        16.9357    6.3447    9.1488 H       1  lig         0.0379
     11 H11        15.1082    5.3569    6.9095 H       1  lig         0.0288
     12 H12        14.5131    6.6512    7.9258 H       1  lig         0.0288
     13 H13        15.6133    4.1436    9.2212 H       1  lig         0.0492
     14 H14        13.9653    4.1867    8.5987 H       1  lig         0.0492
     15 C1         10.7945    7.3650   11.3509 C.ar    1  lig        -0.0611
     16 C2         10.8720    6.9015   10.0296 C.ar    1  lig        -0.0598
     17 C3         11.8609    7.1993   12.2427 C.ar    1  lig        -0.0520
     18 C4         12.0007    6.2485    9.5208 C.ar    1  lig        -0.0376
     19 C5         12.9892    6.5444   11.7484 C.ar    1  lig         0.0076
     20 C6         13.0978    6.0406   10.3647 C.ar    1  lig         0.0501
     21 C7         15.9569    6.0153   14.0347 C.ar    1  lig        -0.0611
     22 C8         16.7637    5.3433   13.1015 C.ar    1  lig        -0.0598
     23 C9         14.6701    6.4577   13.6979 C.ar    1  lig        -0.0520
     24 C10        16.3350    5.0914   11.7868 C.ar    1  lig        -0.0376
     25 C11        14.2430    6.2165   12.3987 C.ar    1  lig         0.0076
     26 C12        15.0649    5.5126   11.3887 C.ar    1  lig         0.0501
     27 C13        17.6552    5.6216    7.2612 C.2     1  lig         0.3561
     28 C14        16.6334    6.3556    8.1023 C.3     1  lig         0.0508
     29 C15        15.2076    5.8076    7.8980 C.3     1  lig        -0.0247
     30 C16        14.7777    4.8080    8.9873 C.3     1  lig         0.0244
     31 N1         14.3309    5.4610   10.2274 N.pl3   1  lig        -0.3398
     32 O1         17.9463    6.0368    6.0323 O.co2   1  lig        -0.2464
     33 O2         18.2312    4.6309    7.6870 O.co2   1  lig        -0.2464
@<TRIPOS>BOND
     1    27    33    1
     2    27    32    1
     3    27    28    1
     4    28    29    1
     5     9    28    1
     6    10    28    1
     7    29    30    1
     8    11    29    1
     9    12    29    1
    10    30    31    1
    11    13    30    1
    12    14    30    1
    13    26    31    1
    14    20    31    1
    15    24    26   ar
    16    25    26   ar
    17    22    24   ar
    18     8    24    1
    19    23    25   ar
    20    19    25    1
    21    21    23   ar
    22     7    23    1
    23    21    22   ar
    24     5    21    1
    25     6    22    1
    26    19    20   ar
    27    17    19   ar
    28    18    20   ar
    29    16    18   ar
    30     4    18    1
    31    15    17   ar
    32     3    17    1
    33    15    16   ar
    34     1    15    1
    35     2    16    1
@<TRIPOS>SUBSTRUCTURE
     1 lig         1 TEMP              0 ****  ****    0 ROOT


########## Name:		ligand
########## HA_RMSDs:		14.7335
########## HA_RMSDh:		14.6968
########## HA_RMSDm:		12.0068
########## Cluster Size:	1
##########    Grid Score:          -15.466036
##########      Grid_vdw:          -15.162786
##########       Grid_es:           -0.303250
##########    Int_energy:            3.837270

@<TRIPOS>MOLECULE
ligand
 33 35 1 0 0
SMALL
No Charge or Current Charge


@<TRIPOS>ATOM
      1 H1         28.0908   18.4358    3.6846 H       1  lig         0.0618
      2 H2         29.3870   17.1375    5.3139 H       1  lig         0.0618
      3 H3         25.7187   17.8618    3.1762 H       1  lig         0.0624
      4 H4         28.4321   15.1925    6.5093 H       1  lig         0.0638
      5 H5         21.2846   15.4260    3.2784 H       1  lig         0.0618
      6 H6         21.2768   13.4321    4.7178 H       1  lig         0.0618
      7 H7         23.3483   16.8013    3.0401 H       1  lig         0.0624
      8 H8         23.1906   12.8272    6.1496 H       1  lig         0.0638
      9 H9         25.9599   13.8277   10.4124 H       1  lig         0.0379
     10 H10        27.3073   13.2283    9.4848 H       1  lig         0.0379
     11 H11        24.6309   14.2370    8.3000 H       1  lig         0.0288
     12 H12        25.0012   12.5568    8.6192 H       1  lig         0.0288
     13 H13        25.8428   12.3702    6.5512 H       1  lig         0.0492
     14 H14        27.1826   13.3934    7.0645 H       1  lig         0.0492
     15 C1         27.6227   17.5921    4.1837 C.ar    1  lig        -0.0611
     16 C2         28.3616   16.8429    5.1107 C.ar    1  lig        -0.0598
     17 C3         26.2905   17.2763    3.8914 C.ar    1  lig        -0.0520
     18 C4         27.8283   15.7435    5.7935 C.ar    1  lig        -0.0376
     19 C5         25.7498   16.1786    4.5616 C.ar    1  lig         0.0076
     20 C6         26.5043   15.3680    5.5380 C.ar    1  lig         0.0501
     21 C7         22.1608   15.1938    3.8803 C.ar    1  lig        -0.0611
     22 C8         22.1265   14.0916    4.7506 C.ar    1  lig        -0.0598
     23 C9         23.3225   15.9636    3.7278 C.ar    1  lig        -0.0520
     24 C10        23.2398   13.7111    5.5195 C.ar    1  lig        -0.0376
     25 C11        24.4241   15.5958    4.4890 C.ar    1  lig         0.0076
     26 C12        24.4247   14.4419    5.4162 C.ar    1  lig         0.0501
     27 C13        26.9363   15.3334    9.2997 C.2     1  lig         0.3561
     28 C14        26.4553   13.9058    9.4438 C.3     1  lig         0.0508
     29 C15        25.4482   13.5157    8.3445 C.3     1  lig        -0.0247
     30 C16        26.0945   13.3533    6.9565 C.3     1  lig         0.0244
     31 N1         25.6696   14.3839    5.9967 N.pl3   1  lig        -0.3398
     32 O1         28.2096   15.6455    9.5202 O.co2   1  lig        -0.2464
     33 O2         26.1687   16.2309    8.9836 O.co2   1  lig        -0.2464
@<TRIPOS>BOND
     1    27    33    1
     2    27    32    1
     3    27    28    1
     4    28    29    1
     5     9    28    1
     6    10    28    1
     7    29    30    1
     8    11    29    1
     9    12    29    1
    10    30    31    1
    11    13    30    1
    12    14    30    1
    13    26    31    1
    14    20    31    1
    15    24    26   ar
    16    25    26   ar
    17    22    24   ar
    18     8    24    1
    19    23    25   ar
    20    19    25    1
    21    21    23   ar
    22     7    23    1
    23    21    22   ar
    24     5    21    1
    25     6    22    1
    26    19    20   ar
    27    17    19   ar
    28    18    20   ar
    29    16    18   ar
    30     4    18    1
    31    15    17   ar
    32     3    17    1
    33    15    16   ar
    34     1    15    1
    35     2    16    1
@<TRIPOS>SUBSTRUCTURE
     1 lig         1 TEMP              0 ****  ****    0 ROOT


########## Name:		ligand
########## HA_RMSDs:		14.9787
########## HA_RMSDh:		14.9101
########## HA_RMSDm:		13.6068
########## Cluster Size:	1
##########    Grid Score:          -15.455032
##########      Grid_vdw:          -15.109473
##########       Grid_es:           -0.345559
##########    Int_energy:            4.918314

@<TRIPOS>MOLECULE
ligand
 33 35 1 0 0
SMALL
No Charge or Current Charge


@<TRIPOS>ATOM
      1 H1         27.2074   31.7580   15.9251 H       1  lig         0.0618
      2 H2         28.8708   30.2480   14.9383 H       1  lig         0.0618
      3 H3         24.9510   32.0327   14.9012 H       1  lig         0.0624
      4 H4         28.4168   28.9496   12.8813 H       1  lig         0.0638
      5 H5         21.0888   31.4862   11.6779 H       1  lig         0.0618
      6 H6         21.5923   30.0346    9.7576 H       1  lig         0.0618
      7 H7         22.8229   31.9326   13.4102 H       1  lig         0.0624
      8 H8         23.7096   28.7864    9.5627 H       1  lig         0.0638
      9 H9         25.3620   25.2314   11.9361 H       1  lig         0.0379
     10 H10        24.6025   26.7896   12.1104 H       1  lig         0.0379
     11 H11        27.1971   26.2014   10.5267 H       1  lig         0.0288
     12 H12        27.1346   26.8603   12.1465 H       1  lig         0.0288
     13 H13        26.0072   28.2602    9.6838 H       1  lig         0.0492
     14 H14        27.5371   28.6353   10.4739 H       1  lig         0.0492
     15 C1         26.9559   31.2089   15.0220 C.ar    1  lig        -0.0611
     16 C2         27.9057   30.3499   14.4506 C.ar    1  lig        -0.0598
     17 C3         25.6868   31.3700   14.4534 C.ar    1  lig        -0.0520
     18 C4         27.6560   29.6095   13.2893 C.ar    1  lig        -0.0376
     19 C5         25.4284   30.6414   13.2920 C.ar    1  lig         0.0076
     20 C6         26.4098   29.7341   12.6644 C.ar    1  lig         0.0501
     21 C7         22.0448   30.9685   11.6311 C.ar    1  lig        -0.0611
     22 C8         22.3006   30.0890   10.5660 C.ar    1  lig        -0.0598
     23 C9         23.0200   31.2380   12.6014 C.ar    1  lig        -0.0520
     24 C10        23.5318   29.4263   10.4228 C.ar    1  lig        -0.0376
     25 C11        24.2367   30.5820   12.4682 C.ar    1  lig         0.0076
     26 C12        24.5417   29.6487   11.3605 C.ar    1  lig         0.0501
     27 C13        24.4727   25.9251   10.1510 C.2     1  lig         0.3561
     28 C14        25.2192   26.1922   11.4400 C.3     1  lig         0.0508
     29 C15        26.6015   26.8271   11.1929 C.3     1  lig        -0.0247
     30 C16        26.5223   28.2649   10.6476 C.3     1  lig         0.0244
     31 N1         25.8229   29.1891   11.5536 N.pl3   1  lig        -0.3398
     32 O1         23.1504   25.7882   10.1489 O.co2   1  lig        -0.2464
     33 O2         25.0648   25.8239    9.0862 O.co2   1  lig        -0.2464
@<TRIPOS>BOND
     1    27    33    1
     2    27    32    1
     3    27    28    1
     4    28    29    1
     5     9    28    1
     6    10    28    1
     7    29    30    1
     8    11    29    1
     9    12    29    1
    10    30    31    1
    11    13    30    1
    12    14    30    1
    13    26    31    1
    14    20    31    1
    15    24    26   ar
    16    25    26   ar
    17    22    24   ar
    18     8    24    1
    19    23    25   ar
    20    19    25    1
    21    21    23   ar
    22     7    23    1
    23    21    22   ar
    24     5    21    1
    25     6    22    1
    26    19    20   ar
    27    17    19   ar
    28    18    20   ar
    29    16    18   ar
    30     4    18    1
    31    15    17   ar
    32     3    17    1
    33    15    16   ar
    34     1    15    1
    35     2    16    1
@<TRIPOS>SUBSTRUCTURE
     1 lig         1 TEMP              0 ****  ****    0 ROOT


########## Name:		ligand
########## HA_RMSDs:		13.9858
########## HA_RMSDh:		13.4359
########## HA_RMSDm:		10.6888
########## Cluster Size:	1
##########    Grid Score:          -15.366014
##########      Grid_vdw:          -15.606301
##########       Grid_es:            0.240288
##########    Int_energy:            2.673830

@<TRIPOS>MOLECULE
ligand
 33 35 1 0 0
SMALL
No Charge or Current Charge


@<TRIPOS>ATOM
      1 H1         15.6007   28.7440   11.8091 H       1  lig         0.0618
      2 H2         16.6244   27.7958    9.7907 H       1  lig         0.0618
      3 H3         16.9933   29.4137   13.7653 H       1  lig         0.0624
      4 H4         19.0642   27.4307    9.5968 H       1  lig         0.0638
      5 H5         21.0608   30.1352   16.6877 H       1  lig         0.0618
      6 H6         23.1577   29.3202   15.6945 H       1  lig         0.0618
      7 H7         18.9060   29.8918   15.4609 H       1  lig         0.0624
      8 H8         23.2788   28.4480   13.3915 H       1  lig         0.0638
      9 H9         23.0718   28.4300    7.9358 H       1  lig         0.0379
     10 H10        21.5750   27.6048    8.2731 H       1  lig         0.0379
     11 H11        22.2171   29.6479   10.3492 H       1  lig         0.0288
     12 H12        23.5495   28.5391   10.1104 H       1  lig         0.0288
     13 H13        22.5484   27.0250   11.4196 H       1  lig         0.0492
     14 H14        21.2710   26.8664   10.2160 H       1  lig         0.0492
     15 C1         16.6779   28.6068   11.7748 C.ar    1  lig        -0.0611
     16 C2         17.2668   28.0590   10.6260 C.ar    1  lig        -0.0598
     17 C3         17.4520   28.9849   12.8783 C.ar    1  lig        -0.0520
     18 C4         18.6460   27.8522   10.5068 C.ar    1  lig        -0.0376
     19 C5         18.8277   28.7779   12.7733 C.ar    1  lig         0.0076
     20 C6         19.4755   28.1984   11.5798 C.ar    1  lig         0.0501
     21 C7         21.0588   29.7451   15.6719 C.ar    1  lig        -0.0611
     22 C8         22.2705   29.3429   15.0859 C.ar    1  lig        -0.0598
     23 C9         19.8399   29.5971   14.9954 C.ar    1  lig        -0.0520
     24 C10        22.3292   28.7877   13.7960 C.ar    1  lig        -0.0376
     25 C11        19.8921   29.0541   13.7184 C.ar    1  lig         0.0076
     26 C12        21.1494   28.6199   13.0690 C.ar    1  lig         0.0501
     27 C13        21.4000   29.7196    7.9556 C.2     1  lig         0.3561
     28 C14        22.1373   28.5118    8.4921 C.3     1  lig         0.0508
     29 C15        22.4686   28.6488    9.9909 C.3     1  lig        -0.0247
     30 C16        21.7875   27.5798   10.8651 C.3     1  lig         0.0244
     31 N1         20.8224   28.1440   11.8213 N.pl3   1  lig        -0.3398
     32 O1         22.0671   30.7897    7.5350 O.co2   1  lig        -0.2464
     33 O2         20.1789   29.7427    7.9011 O.co2   1  lig        -0.2464
@<TRIPOS>BOND
     1    27    33    1
     2    27    32    1
     3    27    28    1
     4    28    29    1
     5     9    28    1
     6    10    28    1
     7    29    30    1
     8    11    29    1
     9    12    29    1
    10    30    31    1
    11    13    30    1
    12    14    30    1
    13    26    31    1
    14    20    31    1
    15    24    26   ar
    16    25    26   ar
    17    22    24   ar
    18     8    24    1
    19    23    25   ar
    20    19    25    1
    21    21    23   ar
    22     7    23    1
    23    21    22   ar
    24     5    21    1
    25     6    22    1
    26    19    20   ar
    27    17    19   ar
    28    18    20   ar
    29    16    18   ar
    30     4    18    1
    31    15    17   ar
    32     3    17    1
    33    15    16   ar
    34     1    15    1
    35     2    16    1
@<TRIPOS>SUBSTRUCTURE
     1 lig         1 TEMP              0 ****  ****    0 ROOT


########## Name:		ligand
########## HA_RMSDs:		14.2026
########## HA_RMSDh:		14.1271
########## HA_RMSDm:		9.1765
########## Cluster Size:	2
##########    Grid Score:          -15.195577
##########      Grid_vdw:          -14.435269
##########       Grid_es:           -0.760307
##########    Int_energy:            2.901695

@<TRIPOS>MOLECULE
ligand
 33 35 1 0 0
SMALL
No Charge or Current Charge


@<TRIPOS>ATOM
      1 H1         23.7061   13.1886    9.4340 H       1  lig         0.0618
      2 H2         25.5391   12.7942   11.0168 H       1  lig         0.0618
      3 H3         22.1277   11.3621    8.8117 H       1  lig         0.0624
      4 H4         25.9351   10.5810   12.0505 H       1  lig         0.0638
      5 H5         19.9966    6.7771    8.6089 H       1  lig         0.0618
      6 H6         21.1880    5.0667    9.9140 H       1  lig         0.0618
      7 H7         20.8431    9.1190    8.5288 H       1  lig         0.0624
      8 H8         23.1060    5.6087   11.3653 H       1  lig         0.0638
      9 H9         26.4142    5.4349   13.1779 H       1  lig         0.0379
     10 H10        27.6535    5.2450   11.9682 H       1  lig         0.0379
     11 H11        25.7058    6.2025   10.8159 H       1  lig         0.0288
     12 H12        26.8461    7.5158   11.0073 H       1  lig         0.0288
     13 H13        25.6526    8.4621   12.8826 H       1  lig         0.0492
     14 H14        24.6018    7.0527   13.0044 H       1  lig         0.0492
     15 C1         23.8342   12.1981    9.8613 C.ar    1  lig        -0.0611
     16 C2         24.8844   11.9660   10.7611 C.ar    1  lig        -0.0598
     17 C3         22.9437   11.1781    9.5055 C.ar    1  lig        -0.0520
     18 C4         25.1136   10.7184   11.3528 C.ar    1  lig        -0.0376
     19 C5         23.1658    9.9283   10.0844 C.ar    1  lig         0.0076
     20 C6         24.2656    9.6526   11.0300 C.ar    1  lig         0.0501
     21 C7         20.8477    7.0650    9.2228 C.ar    1  lig        -0.0611
     22 C8         21.4829    6.0965   10.0177 C.ar    1  lig        -0.0598
     23 C9         21.3265    8.3810    9.1592 C.ar    1  lig        -0.0520
     24 C10        22.6148    6.3933   10.7962 C.ar    1  lig        -0.0376
     25 C11        22.4413    8.6818    9.9305 C.ar    1  lig         0.0076
     26 C12        23.1361    7.6883   10.7798 C.ar    1  lig         0.0501
     27 C13        27.9753    6.8449   13.3612 C.2     1  lig         0.3561
     28 C14        27.0670    5.9906   12.5036 C.3     1  lig         0.0508
     29 C15        26.1912    6.8366   11.5590 C.3     1  lig        -0.0247
     30 C16        25.1450    7.6895   12.2997 C.3     1  lig         0.0244
     31 N1         24.1809    8.3356   11.3958 N.pl3   1  lig        -0.3398
     32 O1         28.1407    6.5744   14.6522 O.co2   1  lig        -0.2464
     33 O2         28.5721    7.8029   12.8913 O.co2   1  lig        -0.2464
@<TRIPOS>BOND
     1    27    33    1
     2    27    32    1
     3    27    28    1
     4    28    29    1
     5     9    28    1
     6    10    28    1
     7    29    30    1
     8    11    29    1
     9    12    29    1
    10    30    31    1
    11    13    30    1
    12    14    30    1
    13    26    31    1
    14    20    31    1
    15    24    26   ar
    16    25    26   ar
    17    22    24   ar
    18     8    24    1
    19    23    25   ar
    20    19    25    1
    21    21    23   ar
    22     7    23    1
    23    21    22   ar
    24     5    21    1
    25     6    22    1
    26    19    20   ar
    27    17    19   ar
    28    18    20   ar
    29    16    18   ar
    30     4    18    1
    31    15    17   ar
    32     3    17    1
    33    15    16   ar
    34     1    15    1
    35     2    16    1
@<TRIPOS>SUBSTRUCTURE
     1 lig         1 TEMP              0 ****  ****    0 ROOT


########## Name:		ligand
########## HA_RMSDs:		15.6113
########## HA_RMSDh:		15.5760
########## HA_RMSDm:		10.7287
########## Cluster Size:	1
##########    Grid Score:          -15.104103
##########      Grid_vdw:          -15.430981
##########       Grid_es:            0.326878
##########    Int_energy:            1.771396

@<TRIPOS>MOLECULE
ligand
 33 35 1 0 0
SMALL
No Charge or Current Charge


@<TRIPOS>ATOM
      1 H1         12.0919   10.2168    6.5332 H       1  lig         0.0618
      2 H2         13.8509   11.9267    6.5834 H       1  lig         0.0618
      3 H3          9.6963   10.8430    6.2437 H       1  lig         0.0624
      4 H4         13.3488   14.3412    6.3790 H       1  lig         0.0638
      5 H5          5.5592   13.7010    5.6770 H       1  lig         0.0618
      6 H6          6.0071   16.1189    5.7100 H       1  lig         0.0618
      7 H7          7.4224   12.0694    5.9483 H       1  lig         0.0624
      8 H8          8.2933   17.0394    5.7798 H       1  lig         0.0638
      9 H9         11.3875   19.1867    5.2589 H       1  lig         0.0379
     10 H10        13.0309   18.6093    5.2949 H       1  lig         0.0379
     11 H11        12.1831   16.4601    4.1135 H       1  lig         0.0288
     12 H12        10.5727   17.1418    4.1755 H       1  lig         0.0288
     13 H13        10.7109   17.2217    6.6962 H       1  lig         0.0492
     14 H14        12.2553   16.3792    6.5946 H       1  lig         0.0492
     15 C1         11.8173   11.2635    6.4366 C.ar    1  lig        -0.0611
     16 C2         12.8184   12.2448    6.4715 C.ar    1  lig        -0.0598
     17 C3         10.4695   11.6060    6.2753 C.ar    1  lig        -0.0520
     18 C4         12.5435   13.6122    6.3534 C.ar    1  lig        -0.0376
     19 C5         10.1826   12.9667    6.1625 C.ar    1  lig         0.0076
     20 C6         11.2140   14.0225    6.2013 C.ar    1  lig         0.0501
     21 C7          6.5864   14.0571    5.7238 C.ar    1  lig        -0.0611
     22 C8          6.8398   15.4380    5.6752 C.ar    1  lig        -0.0598
     23 C9          7.6267   13.1327    5.8923 C.ar    1  lig        -0.0520
     24 C10         8.1391   15.9638    5.7781 C.ar    1  lig        -0.0376
     25 C11         8.9134   13.6460    5.9891 C.ar    1  lig         0.0076
     26 C12         9.2184   15.0936    5.9415 C.ar    1  lig         0.0501
     27 C13        12.2871   19.1249    3.3495 C.2     1  lig         0.3561
     28 C14        12.0984   18.5465    4.7352 C.3     1  lig         0.0508
     29 C15        11.5329   17.1134    4.6970 C.3     1  lig        -0.0247
     30 C16        11.2913   16.5168    6.0957 C.3     1  lig         0.0244
     31 N1         10.5814   15.2289    6.0602 N.pl3   1  lig        -0.3398
     32 O1         11.3183   19.8271    2.7701 O.co2   1  lig        -0.2464
     33 O2         13.3276   18.9572    2.7301 O.co2   1  lig        -0.2464
@<TRIPOS>BOND
     1    27    33    1
     2    27    32    1
     3    27    28    1
     4    28    29    1
     5     9    28    1
     6    10    28    1
     7    29    30    1
     8    11    29    1
     9    12    29    1
    10    30    31    1
    11    13    30    1
    12    14    30    1
    13    26    31    1
    14    20    31    1
    15    24    26   ar
    16    25    26   ar
    17    22    24   ar
    18     8    24    1
    19    23    25   ar
    20    19    25    1
    21    21    23   ar
    22     7    23    1
    23    21    22   ar
    24     5    21    1
    25     6    22    1
    26    19    20   ar
    27    17    19   ar
    28    18    20   ar
    29    16    18   ar
    30     4    18    1
    31    15    17   ar
    32     3    17    1
    33    15    16   ar
    34     1    15    1
    35     2    16    1
@<TRIPOS>SUBSTRUCTURE
     1 lig         1 TEMP              0 ****  ****    0 ROOT


########## Name:		ligand
########## HA_RMSDs:		14.8115
########## HA_RMSDh:		14.3829
########## HA_RMSDm:		12.2340
########## Cluster Size:	3
##########    Grid Score:          -15.099237
##########      Grid_vdw:          -14.799631
##########       Grid_es:           -0.299606
##########    Int_energy:            3.107531

@<TRIPOS>MOLECULE
ligand
 33 35 1 0 0
SMALL
No Charge or Current Charge


@<TRIPOS>ATOM
      1 H1         28.7261   17.2412    4.8015 H       1  lig         0.0618
      2 H2         26.5103   16.2291    5.0961 H       1  lig         0.0618
      3 H3         30.6606   16.5349    6.2064 H       1  lig         0.0624
      4 H4         26.0709   14.4910    6.8019 H       1  lig         0.0638
      5 H5         33.3308   14.1122    9.7568 H       1  lig         0.0618
      6 H6         31.9906   12.5841   11.1412 H       1  lig         0.0618
      7 H7         32.2573   15.4389    7.9416 H       1  lig         0.0624
      8 H8         29.6152   12.1165   10.6745 H       1  lig         0.0638
      9 H9         27.1359   11.5060   11.2804 H       1  lig         0.0379
     10 H10        27.7700   12.8912   12.1257 H       1  lig         0.0379
     11 H11        26.8443   14.3959   10.5091 H       1  lig         0.0288
     12 H12        25.4401   13.3781   10.2764 H       1  lig         0.0288
     13 H13        26.3215   12.7654    8.3007 H       1  lig         0.0492
     14 H14        27.4353   11.7664    9.2318 H       1  lig         0.0492
     15 C1         28.5877   16.4797    5.5639 C.ar    1  lig        -0.0611
     16 C2         27.3216   15.9032    5.7406 C.ar    1  lig        -0.0598
     17 C3         29.6794   16.0899    6.3489 C.ar    1  lig        -0.0520
     18 C4         27.0652   14.9174    6.7007 C.ar    1  lig        -0.0376
     19 C5         29.4345   15.1121    7.3134 C.ar    1  lig         0.0076
     20 C6         28.1119   14.4912    7.5264 C.ar    1  lig         0.0501
     21 C7         32.2814   13.9511    9.5184 C.ar    1  lig        -0.0611
     22 C8         31.5379   13.0270   10.2711 C.ar    1  lig        -0.0598
     23 C9         31.6822   14.7135    8.5060 C.ar    1  lig        -0.0520
     24 C10        30.1683   12.8077   10.0443 C.ar    1  lig        -0.0376
     25 C11        30.3303   14.4973    8.2736 C.ar    1  lig         0.0076
     26 C12        29.5154   13.5323    9.0455 C.ar    1  lig         0.0501
     27 C13        25.7309   12.4004   12.5784 C.2     1  lig         0.3561
     28 C14        26.8874   12.5159   11.6091 C.3     1  lig         0.0508
     29 C15        26.5289   13.3608   10.3711 C.3     1  lig        -0.0247
     30 C16        27.1064   12.7958    9.0604 C.3     1  lig         0.0244
     31 N1         28.2373   13.5804    8.5414 N.pl3   1  lig        -0.3398
     32 O1         24.8254   11.4368   12.4419 O.co2   1  lig        -0.2464
     33 O2         25.5988   13.1895   13.5027 O.co2   1  lig        -0.2464
@<TRIPOS>BOND
     1    27    33    1
     2    27    32    1
     3    27    28    1
     4    28    29    1
     5     9    28    1
     6    10    28    1
     7    29    30    1
     8    11    29    1
     9    12    29    1
    10    30    31    1
    11    13    30    1
    12    14    30    1
    13    26    31    1
    14    20    31    1
    15    24    26   ar
    16    25    26   ar
    17    22    24   ar
    18     8    24    1
    19    23    25   ar
    20    19    25    1
    21    21    23   ar
    22     7    23    1
    23    21    22   ar
    24     5    21    1
    25     6    22    1
    26    19    20   ar
    27    17    19   ar
    28    18    20   ar
    29    16    18   ar
    30     4    18    1
    31    15    17   ar
    32     3    17    1
    33    15    16   ar
    34     1    15    1
    35     2    16    1
@<TRIPOS>SUBSTRUCTURE
     1 lig         1 TEMP              0 ****  ****    0 ROOT


########## Name:		ligand
########## HA_RMSDs:		14.0758
########## HA_RMSDh:		13.9900
########## HA_RMSDm:		9.7068
########## Cluster Size:	1
##########    Grid Score:          -15.088521
##########      Grid_vdw:          -14.828431
##########       Grid_es:           -0.260090
##########    Int_energy:            4.610362

@<TRIPOS>MOLECULE
ligand
 33 35 1 0 0
SMALL
No Charge or Current Charge


@<TRIPOS>ATOM
      1 H1         27.0501   16.5215    8.4008 H       1  lig         0.0618
      2 H2         29.0193   15.7971    9.6729 H       1  lig         0.0618
      3 H3         25.0287   15.0732    8.2230 H       1  lig         0.0624
      4 H4         29.1182   13.6036   10.8141 H       1  lig         0.0638
      5 H5         21.9647   11.0871    8.7954 H       1  lig         0.0618
      6 H6         22.9846    9.2151   10.0215 H       1  lig         0.0618
      7 H7         23.2633   13.1693    8.3645 H       1  lig         0.0624
      8 H8         25.2115    9.3763   11.0674 H       1  lig         0.0638
      9 H9         28.6904    8.4226   11.4968 H       1  lig         0.0379
     10 H10        30.1001    8.5209   10.4779 H       1  lig         0.0379
     11 H11        28.5339   10.1681    9.5767 H       1  lig         0.0288
     12 H12        29.6998   11.1013   10.4887 H       1  lig         0.0288
     13 H13        28.2352   11.6155   12.2195 H       1  lig         0.0492
     14 H14        27.2458   10.1804   11.9604 H       1  lig         0.0492
     15 C1         27.0406   15.5492    8.8854 C.ar    1  lig        -0.0611
     16 C2         28.1663   15.1280    9.6078 C.ar    1  lig        -0.0598
     17 C3         25.9016   14.7421    8.7795 C.ar    1  lig        -0.0520
     18 C4         28.2293   13.8905   10.2589 C.ar    1  lig        -0.0376
     19 C5         25.9550   13.5036    9.4195 C.ar    1  lig         0.0076
     20 C6         27.1274   13.0308   10.1822 C.ar    1  lig         0.0501
     21 C7         22.9573   11.2033    9.2257 C.ar    1  lig        -0.0611
     22 C8         23.5076   10.1549    9.9816 C.ar    1  lig        -0.0598
     23 C9         23.6866   12.3718    8.9648 C.ar    1  lig        -0.0520
     24 C10        24.8022   10.2239   10.5244 C.ar    1  lig        -0.0376
     25 C11        24.9644   12.4480    9.5031 C.ar    1  lig         0.0076
     26 C12        25.5765   11.3644   10.3044 C.ar    1  lig         0.0501
     27 C13        30.3269    9.3721   12.4343 C.2     1  lig         0.3561
     28 C14        29.5051    9.0827   11.1969 C.3     1  lig         0.0508
     29 C15        28.9007   10.3618   10.5856 C.3     1  lig        -0.0247
     30 C16        27.7875   10.9821   11.4496 C.3     1  lig         0.0244
     31 N1         26.8323   11.7863   10.6718 N.pl3   1  lig        -0.3398
     32 O1         31.3037    8.5511   12.8069 O.co2   1  lig        -0.2464
     33 O2         30.1103   10.3601   13.1209 O.co2   1  lig        -0.2464
@<TRIPOS>BOND
     1    27    33    1
     2    27    32    1
     3    27    28    1
     4    28    29    1
     5     9    28    1
     6    10    28    1
     7    29    30    1
     8    11    29    1
     9    12    29    1
    10    30    31    1
    11    13    30    1
    12    14    30    1
    13    26    31    1
    14    20    31    1
    15    24    26   ar
    16    25    26   ar
    17    22    24   ar
    18     8    24    1
    19    23    25   ar
    20    19    25    1
    21    21    23   ar
    22     7    23    1
    23    21    22   ar
    24     5    21    1
    25     6    22    1
    26    19    20   ar
    27    17    19   ar
    28    18    20   ar
    29    16    18   ar
    30     4    18    1
    31    15    17   ar
    32     3    17    1
    33    15    16   ar
    34     1    15    1
    35     2    16    1
@<TRIPOS>SUBSTRUCTURE
     1 lig         1 TEMP              0 ****  ****    0 ROOT


########## Name:		ligand
########## HA_RMSDs:		13.9610
########## HA_RMSDh:		13.8684
########## HA_RMSDm:		11.3226
########## Cluster Size:	1
##########    Grid Score:          -14.983689
##########      Grid_vdw:          -15.936142
##########       Grid_es:            0.952453
##########    Int_energy:            4.284941

@<TRIPOS>MOLECULE
ligand
 33 35 1 0 0
SMALL
No Charge or Current Charge


@<TRIPOS>ATOM
      1 H1         21.8815   29.6821   11.7391 H       1  lig         0.0618
      2 H2         21.9197   28.2926    9.7171 H       1  lig         0.0618
      3 H3         19.7353   30.2336   12.8812 H       1  lig         0.0624
      4 H4         19.8527   27.3942    8.6954 H       1  lig         0.0638
      5 H5         14.7720   30.4336   13.8460 H       1  lig         0.0618
      6 H6         13.3825   29.3172   12.1517 H       1  lig         0.0618
      7 H7         17.2511   30.4919   13.6050 H       1  lig         0.0624
      8 H8         14.3517   28.0265   10.2879 H       1  lig         0.0638
      9 H9         15.6082   26.5905    6.4366 H       1  lig         0.0379
     10 H10        16.1994   27.8129    5.3451 H       1  lig         0.0379
     11 H11        16.2861   28.9010    7.5066 H       1  lig         0.0288
     12 H12        17.9286   28.3433    7.2764 H       1  lig         0.0288
     13 H13        17.5059   26.3249    8.6464 H       1  lig         0.0492
     14 H14        15.8332   26.8262    8.8838 H       1  lig         0.0492
     15 C1         20.9449   29.3107   11.3327 C.ar    1  lig        -0.0611
     16 C2         20.9611   28.5218   10.1734 C.ar    1  lig        -0.0598
     17 C3         19.7443   29.6261   11.9801 C.ar    1  lig        -0.0520
     18 C4         19.7972   28.0070    9.5909 C.ar    1  lig        -0.0376
     19 C5         18.5768   29.1234   11.4051 C.ar    1  lig         0.0076
     20 C6         18.5620   28.2954   10.1828 C.ar    1  lig         0.0501
     21 C7         15.2485   29.8889   13.0335 C.ar    1  lig        -0.0611
     22 C8         14.4510   29.1975   12.1065 C.ar    1  lig        -0.0598
     23 C9         16.6428   29.9405   12.8969 C.ar    1  lig        -0.0520
     24 C10        15.0021   28.5143   11.0088 C.ar    1  lig        -0.0376
     25 C11        17.1936   29.2628   11.8172 C.ar    1  lig         0.0076
     26 C12        16.3855   28.5237   10.8214 C.ar    1  lig         0.0501
     27 C13        17.5706   26.2142    5.7542 C.2     1  lig         0.3561
     28 C14        16.4893   27.1817    6.1842 C.3     1  lig         0.0508
     29 C15        16.9000   28.0033    7.4216 C.3     1  lig        -0.0247
     30 C16        16.8516   27.1961    8.7319 C.3     1  lig         0.0244
     31 N1         17.2579   27.9794    9.9089 N.pl3   1  lig        -0.3398
     32 O1         17.4141   25.4602    4.6706 O.co2   1  lig        -0.2464
     33 O2         18.6070   26.0991    6.3924 O.co2   1  lig        -0.2464
@<TRIPOS>BOND
     1    27    33    1
     2    27    32    1
     3    27    28    1
     4    28    29    1
     5     9    28    1
     6    10    28    1
     7    29    30    1
     8    11    29    1
     9    12    29    1
    10    30    31    1
    11    13    30    1
    12    14    30    1
    13    26    31    1
    14    20    31    1
    15    24    26   ar
    16    25    26   ar
    17    22    24   ar
    18     8    24    1
    19    23    25   ar
    20    19    25    1
    21    21    23   ar
    22     7    23    1
    23    21    22   ar
    24     5    21    1
    25     6    22    1
    26    19    20   ar
    27    17    19   ar
    28    18    20   ar
    29    16    18   ar
    30     4    18    1
    31    15    17   ar
    32     3    17    1
    33    15    16   ar
    34     1    15    1
    35     2    16    1
@<TRIPOS>SUBSTRUCTURE
     1 lig         1 TEMP              0 ****  ****    0 ROOT


########## Name:		ligand
########## HA_RMSDs:		14.2936
########## HA_RMSDh:		14.1100
########## HA_RMSDm:		10.5421
########## Cluster Size:	1
##########    Grid Score:          -14.772892
##########      Grid_vdw:          -15.094429
##########       Grid_es:            0.321537
##########    Int_energy:            3.187523

@<TRIPOS>MOLECULE
ligand
 33 35 1 0 0
SMALL
No Charge or Current Charge


@<TRIPOS>ATOM
      1 H1         22.8452   29.3932    8.4077 H       1  lig         0.0618
      2 H2         21.7700   28.7720    6.2914 H       1  lig         0.0618
      3 H3         21.6756   29.0777   10.5866 H       1  lig         0.0624
      4 H4         19.4818   27.8342    6.2005 H       1  lig         0.0638
      5 H5         18.0530   27.8972   13.9164 H       1  lig         0.0618
      6 H6         15.9630   27.1190   12.8799 H       1  lig         0.0618
      7 H7         19.9944   28.5551   12.5002 H       1  lig         0.0624
      8 H8         15.7531   26.7357   10.4534 H       1  lig         0.0638
      9 H9         14.9241   28.7575    8.3211 H       1  lig         0.0379
     10 H10        16.4022   29.6656    8.4814 H       1  lig         0.0379
     11 H11        17.1652   28.6300    6.2372 H       1  lig         0.0288
     12 H12        15.6447   27.7656    6.1863 H       1  lig         0.0288
     13 H13        17.4721   26.2986    6.9846 H       1  lig         0.0492
     14 H14        16.1794   26.4682    8.1702 H       1  lig         0.0492
     15 C1         21.8394   28.9829    8.4240 C.ar    1  lig        -0.0611
     16 C2         21.2181   28.6327    7.2165 C.ar    1  lig        -0.0598
     17 C3         21.1898   28.8101    9.6520 C.ar    1  lig        -0.0520
     18 C4         19.9257   28.0987    7.1563 C.ar    1  lig        -0.0376
     19 C5         19.8985   28.2840    9.6042 C.ar    1  lig         0.0076
     20 C6         19.2168   27.9115    8.3486 C.ar    1  lig         0.0501
     21 C7         18.0067   27.7581   12.8382 C.ar    1  lig        -0.0611
     22 C8         16.8321   27.2501   12.2589 C.ar    1  lig        -0.0598
     23 C9         19.0979   28.1458   12.0482 C.ar    1  lig        -0.0520
     24 C10        16.6919   27.0912   10.8695 C.ar    1  lig        -0.0376
     25 C11        18.9674   27.9860   10.6750 C.ar    1  lig         0.0076
     26 C12        17.7462   27.4540   10.0294 C.ar    1  lig         0.0501
     27 C13        15.0805   30.3395    6.9313 C.2     1  lig         0.3561
     28 C14        15.7189   29.2376    7.7489 C.3     1  lig         0.0508
     29 C15        16.3983   28.1739    6.8647 C.3     1  lig        -0.0247
     30 C16        16.9918   27.0026    7.6687 C.3     1  lig         0.0244
     31 N1         17.9761   27.4316    8.6742 N.pl3   1  lig        -0.3398
     32 O1         13.7813   30.3104    6.6513 O.co2   1  lig        -0.2464
     33 O2         15.7415   31.2759    6.5061 O.co2   1  lig        -0.2464
@<TRIPOS>BOND
     1    27    33    1
     2    27    32    1
     3    27    28    1
     4    28    29    1
     5     9    28    1
     6    10    28    1
     7    29    30    1
     8    11    29    1
     9    12    29    1
    10    30    31    1
    11    13    30    1
    12    14    30    1
    13    26    31    1
    14    20    31    1
    15    24    26   ar
    16    25    26   ar
    17    22    24   ar
    18     8    24    1
    19    23    25   ar
    20    19    25    1
    21    21    23   ar
    22     7    23    1
    23    21    22   ar
    24     5    21    1
    25     6    22    1
    26    19    20   ar
    27    17    19   ar
    28    18    20   ar
    29    16    18   ar
    30     4    18    1
    31    15    17   ar
    32     3    17    1
    33    15    16   ar
    34     1    15    1
    35     2    16    1
@<TRIPOS>SUBSTRUCTURE
     1 lig         1 TEMP              0 ****  ****    0 ROOT


########## Name:		ligand
########## HA_RMSDs:		13.9071
########## HA_RMSDh:		13.8772
########## HA_RMSDm:		12.5910
########## Cluster Size:	1
##########    Grid Score:          -14.769705
##########      Grid_vdw:          -14.275854
##########       Grid_es:           -0.493851
##########    Int_energy:            2.414942

@<TRIPOS>MOLECULE
ligand
 33 35 1 0 0
SMALL
No Charge or Current Charge


@<TRIPOS>ATOM
      1 H1         27.8571   31.3782   11.5263 H       1  lig         0.0618
      2 H2         26.7162   32.0490   13.5924 H       1  lig         0.0618
      3 H3         26.6738   30.0592    9.7728 H       1  lig         0.0624
      4 H4         24.3638   31.4381   14.0575 H       1  lig         0.0638
      5 H5         23.0102   27.4859    7.4145 H       1  lig         0.0618
      6 H6         20.9485   27.2532    8.7349 H       1  lig         0.0618
      7 H7         24.9755   28.6997    8.3482 H       1  lig         0.0624
      8 H8         20.6357   28.3762   10.9074 H       1  lig         0.0638
      9 H9         21.6765   28.6590   16.3773 H       1  lig         0.0379
     10 H10        21.4756   30.3180   15.8847 H       1  lig         0.0379
     11 H11        21.6147   27.9687   13.8829 H       1  lig         0.0288
     12 H12        23.0477   28.7790   14.4761 H       1  lig         0.0288
     13 H13        21.9846   30.9955   13.6432 H       1  lig         0.0492
     14 H14        20.8598   29.9741   12.7504 H       1  lig         0.0492
     15 C1         26.8222   31.0858   11.6798 C.ar    1  lig        -0.0611
     16 C2         26.1679   31.4611   12.8621 C.ar    1  lig        -0.0598
     17 C3         26.1658   30.3444   10.6902 C.ar    1  lig        -0.0520
     18 C4         24.8368   31.1225   13.1316 C.ar    1  lig        -0.0376
     19 C5         24.8401   29.9959   10.9504 C.ar    1  lig         0.0076
     20 C6         24.1271   30.3716   12.1875 C.ar    1  lig         0.0501
     21 C7         22.9272   27.9897    8.3755 C.ar    1  lig        -0.0611
     22 C8         21.7232   27.9080    9.0945 C.ar    1  lig        -0.0598
     23 C9         24.0431   28.6568    8.8999 C.ar    1  lig        -0.0520
     24 C10        21.5674   28.4963   10.3614 C.ar    1  lig        -0.0376
     25 C11        23.8936   29.2448   10.1490 C.ar    1  lig         0.0076
     26 C12        22.6410   29.1799   10.9350 C.ar    1  lig         0.0501
     27 C13        19.7862   29.0467   15.5198 C.2     1  lig         0.3561
     28 C14        21.2785   29.2903   15.5819 C.3     1  lig         0.0508
     29 C15        21.9852   28.9218   14.2629 C.3     1  lig        -0.0247
     30 C16        21.8643   30.0119   13.1823 C.3     1  lig         0.0244
     31 N1         22.8554   29.8701   12.1045 N.pl3   1  lig        -0.3398
     32 O1         19.0119   29.7795   14.7257 O.co2   1  lig        -0.2464
     33 O2         19.2582   28.1780   16.1988 O.co2   1  lig        -0.2464
@<TRIPOS>BOND
     1    27    33    1
     2    27    32    1
     3    27    28    1
     4    28    29    1
     5     9    28    1
     6    10    28    1
     7    29    30    1
     8    11    29    1
     9    12    29    1
    10    30    31    1
    11    13    30    1
    12    14    30    1
    13    26    31    1
    14    20    31    1
    15    24    26   ar
    16    25    26   ar
    17    22    24   ar
    18     8    24    1
    19    23    25   ar
    20    19    25    1
    21    21    23   ar
    22     7    23    1
    23    21    22   ar
    24     5    21    1
    25     6    22    1
    26    19    20   ar
    27    17    19   ar
    28    18    20   ar
    29    16    18   ar
    30     4    18    1
    31    15    17   ar
    32     3    17    1
    33    15    16   ar
    34     1    15    1
    35     2    16    1
@<TRIPOS>SUBSTRUCTURE
     1 lig         1 TEMP              0 ****  ****    0 ROOT


########## Name:		ligand
########## HA_RMSDs:		16.0551
########## HA_RMSDh:		15.9007
########## HA_RMSDm:		14.2815
########## Cluster Size:	1
##########    Grid Score:          -14.751278
##########      Grid_vdw:          -15.297176
##########       Grid_es:            0.545898
##########    Int_energy:            3.259349

@<TRIPOS>MOLECULE
ligand
 33 35 1 0 0
SMALL
No Charge or Current Charge


@<TRIPOS>ATOM
      1 H1         31.2412   29.9071    7.5052 H       1  lig         0.0618
      2 H2         30.1947   27.8089    6.7819 H       1  lig         0.0618
      3 H3         30.5194   31.0500    9.5999 H       1  lig         0.0624
      4 H4         28.3678   26.7371    8.0615 H       1  lig         0.0638
      5 H5         27.9416   32.0255   13.8435 H       1  lig         0.0618
      6 H6         26.1316   30.4242   14.2995 H       1  lig         0.0618
      7 H7         29.3588   31.7812   11.8090 H       1  lig         0.0624
      8 H8         25.7742   28.4068   12.9279 H       1  lig         0.0638
      9 H9         23.1034   26.5113    9.6769 H       1  lig         0.0379
     10 H10        24.1628   25.2361   10.2127 H       1  lig         0.0379
     11 H11        24.9476   28.2050    9.8180 H       1  lig         0.0288
     12 H12        25.2657   26.9188    8.6751 H       1  lig         0.0288
     13 H13        27.0150   26.0260    9.8592 H       1  lig         0.0492
     14 H14        26.3083   26.4214   11.4244 H       1  lig         0.0492
     15 C1         30.4443   29.4771    8.1055 C.ar    1  lig        -0.0611
     16 C2         29.8385   28.2817    7.6926 C.ar    1  lig        -0.0598
     17 C3         30.0448   30.1262    9.2798 C.ar    1  lig        -0.0520
     18 C4         28.8070   27.6671    8.4120 C.ar    1  lig        -0.0376
     19 C5         29.0131   29.5260   10.0022 C.ar    1  lig         0.0076
     20 C6         28.3528   28.2715    9.5899 C.ar    1  lig         0.0501
     21 C7         27.8159   31.1580   13.1988 C.ar    1  lig        -0.0611
     22 C8         26.8231   30.2118   13.5027 C.ar    1  lig        -0.0598
     23 C9         28.6072   31.0372   12.0479 C.ar    1  lig        -0.0520
     24 C10        26.5792   29.0950   12.6849 C.ar    1  lig        -0.0376
     25 C11        28.3746   29.9329   11.2388 C.ar    1  lig         0.0076
     26 C12        27.3385   28.9158   11.5272 C.ar    1  lig         0.0501
     27 C13        23.6366   26.6766   11.7133 C.2     1  lig         0.3561
     28 C14        23.9842   26.3082   10.2872 C.3     1  lig         0.0508
     29 C15        25.1621   27.1382    9.7408 C.3     1  lig        -0.0247
     30 C16        26.5042   26.8118   10.4212 C.3     1  lig         0.0244
     31 N1         27.3976   27.9758   10.5257 N.pl3   1  lig        -0.3398
     32 O1         22.7880   27.6671   11.9702 O.co2   1  lig        -0.2464
     33 O2         24.1291   26.0789   12.6592 O.co2   1  lig        -0.2464
@<TRIPOS>BOND
     1    27    33    1
     2    27    32    1
     3    27    28    1
     4    28    29    1
     5     9    28    1
     6    10    28    1
     7    29    30    1
     8    11    29    1
     9    12    29    1
    10    30    31    1
    11    13    30    1
    12    14    30    1
    13    26    31    1
    14    20    31    1
    15    24    26   ar
    16    25    26   ar
    17    22    24   ar
    18     8    24    1
    19    23    25   ar
    20    19    25    1
    21    21    23   ar
    22     7    23    1
    23    21    22   ar
    24     5    21    1
    25     6    22    1
    26    19    20   ar
    27    17    19   ar
    28    18    20   ar
    29    16    18   ar
    30     4    18    1
    31    15    17   ar
    32     3    17    1
    33    15    16   ar
    34     1    15    1
    35     2    16    1
@<TRIPOS>SUBSTRUCTURE
     1 lig         1 TEMP              0 ****  ****    0 ROOT


########## Name:		ligand
########## HA_RMSDs:		15.5427
########## HA_RMSDh:		15.4735
########## HA_RMSDm:		12.7630
########## Cluster Size:	1
##########    Grid Score:          -14.744733
##########      Grid_vdw:          -14.794565
##########       Grid_es:            0.049832
##########    Int_energy:            1.882519

@<TRIPOS>MOLECULE
ligand
 33 35 1 0 0
SMALL
No Charge or Current Charge


@<TRIPOS>ATOM
      1 H1         25.0904   34.2792   12.5697 H       1  lig         0.0618
      2 H2         27.2555   33.3398   11.8988 H       1  lig         0.0618
      3 H3         23.0081   32.9120   12.4711 H       1  lig         0.0624
      4 H4         27.4864   31.0192   11.0711 H       1  lig         0.0638
      5 H5         19.9277   28.9862   11.6318 H       1  lig         0.0618
      6 H6         21.0463   27.0396   10.6282 H       1  lig         0.0618
      7 H7         21.2148   31.0588   12.1367 H       1  lig         0.0624
      8 H8         23.4863   26.9471   10.2868 H       1  lig         0.0638
      9 H9         27.3846   25.9866   10.1099 H       1  lig         0.0379
     10 H10        28.7411   27.0426   10.3925 H       1  lig         0.0379
     11 H11        27.3881   28.2770   12.1417 H       1  lig         0.0288
     12 H12        26.1307   27.0670   12.0124 H       1  lig         0.0288
     13 H13        25.7159   27.7270    9.6268 H       1  lig         0.0492
     14 H14        26.9086   29.0124    9.8027 H       1  lig         0.0492
     15 C1         25.1368   33.2532   12.2157 C.ar    1  lig        -0.0611
     16 C2         26.3709   32.7140   11.8247 C.ar    1  lig        -0.0598
     17 C3         23.9624   32.4930   12.1628 C.ar    1  lig        -0.0520
     18 C4         26.5108   31.4017   11.3586 C.ar    1  lig        -0.0376
     19 C5         24.0885   31.1851   11.6940 C.ar    1  lig         0.0076
     20 C6         25.3725   30.5920   11.2703 C.ar    1  lig         0.0501
     21 C7         21.0062   29.0007   11.4879 C.ar    1  lig        -0.0611
     22 C8         21.6483   27.8609   10.9761 C.ar    1  lig        -0.0598
     23 C9         21.7196   30.1764   11.7599 C.ar    1  lig        -0.0520
     24 C10        23.0306   27.8317   10.7234 C.ar    1  lig        -0.0376
     25 C11        23.0867   30.1518   11.5173 C.ar    1  lig         0.0076
     26 C12        23.7972   28.9699   10.9794 C.ar    1  lig         0.0501
     27 C13        28.3662   25.6044   11.9399 C.2     1  lig         0.3561
     28 C14        27.8877   26.5727   10.8799 C.3     1  lig         0.0508
     29 C15        26.8907   27.6055   11.4405 C.3     1  lig        -0.0247
     30 C16        26.1709   28.4135   10.3452 C.3     1  lig         0.0244
     31 N1         25.1268   29.3039   10.8754 N.pl3   1  lig        -0.3398
     32 O1         28.4626   24.3048   11.6774 O.co2   1  lig        -0.2464
     33 O2         28.6691   25.9908   13.0595 O.co2   1  lig        -0.2464
@<TRIPOS>BOND
     1    27    33    1
     2    27    32    1
     3    27    28    1
     4    28    29    1
     5     9    28    1
     6    10    28    1
     7    29    30    1
     8    11    29    1
     9    12    29    1
    10    30    31    1
    11    13    30    1
    12    14    30    1
    13    26    31    1
    14    20    31    1
    15    24    26   ar
    16    25    26   ar
    17    22    24   ar
    18     8    24    1
    19    23    25   ar
    20    19    25    1
    21    21    23   ar
    22     7    23    1
    23    21    22   ar
    24     5    21    1
    25     6    22    1
    26    19    20   ar
    27    17    19   ar
    28    18    20   ar
    29    16    18   ar
    30     4    18    1
    31    15    17   ar
    32     3    17    1
    33    15    16   ar
    34     1    15    1
    35     2    16    1
@<TRIPOS>SUBSTRUCTURE
     1 lig         1 TEMP              0 ****  ****    0 ROOT


########## Name:		ligand
########## HA_RMSDs:		14.7803
########## HA_RMSDh:		14.4780
########## HA_RMSDm:		9.5510
########## Cluster Size:	1
##########    Grid Score:          -14.681422
##########      Grid_vdw:          -15.257209
##########       Grid_es:            0.575786
##########    Int_energy:            2.596128

@<TRIPOS>MOLECULE
ligand
 33 35 1 0 0
SMALL
No Charge or Current Charge


@<TRIPOS>ATOM
      1 H1         16.1784   27.2494   12.7680 H       1  lig         0.0618
      2 H2         15.0091   26.1501   10.9120 H       1  lig         0.0618
      3 H3         18.3767   28.3723   12.4193 H       1  lig         0.0624
      4 H4         15.9479   26.0720    8.6237 H       1  lig         0.0638
      5 H5         22.5615   30.0275   10.1057 H       1  lig         0.0618
      6 H6         22.7318   29.3463    7.7488 H       1  lig         0.0618
      7 H7         20.6026   29.3343   11.4803 H       1  lig         0.0624
      8 H8         20.9112   28.1651    6.5788 H       1  lig         0.0638
      9 H9         16.3389   26.1689    4.7548 H       1  lig         0.0379
     10 H10        16.2853   27.7170    3.9574 H       1  lig         0.0379
     11 H11        16.4965   28.0567    6.4270 H       1  lig         0.0288
     12 H12        17.9761   28.5730    5.6484 H       1  lig         0.0288
     13 H13        19.1343   26.5033    6.2366 H       1  lig         0.0492
     14 H14        17.6525   25.8169    6.8988 H       1  lig         0.0492
     15 C1         16.6337   27.2462   11.7817 C.ar    1  lig        -0.0611
     16 C2         15.9725   26.6133   10.7192 C.ar    1  lig        -0.0598
     17 C3         17.8688   27.8784   11.5952 C.ar    1  lig        -0.0520
     18 C4         16.4947   26.5673    9.4214 C.ar    1  lig        -0.0376
     19 C5         18.4023   27.8339   10.3068 C.ar    1  lig         0.0076
     20 C6         17.7325   27.1707    9.1704 C.ar    1  lig         0.0501
     21 C7         21.7358   29.4942    9.6390 C.ar    1  lig        -0.0611
     22 C8         21.8106   29.1662    8.2751 C.ar    1  lig        -0.0598
     23 C9         20.6451   29.0946   10.4238 C.ar    1  lig        -0.0520
     24 C10        20.7996   28.4380    7.6246 C.ar    1  lig        -0.0376
     25 C11        19.6404   28.3795    9.7855 C.ar    1  lig         0.0076
     26 C12        19.6845   28.0165    8.3511 C.ar    1  lig         0.0501
     27 C13        18.1123   26.6215    3.7018 C.2     1  lig         0.3561
     28 C14        16.9303   27.0596    4.5391 C.3     1  lig         0.0508
     29 C15        17.3647   27.6954    5.8741 C.3     1  lig        -0.0247
     30 C16        18.2039   26.7507    6.7537 C.3     1  lig         0.0244
     31 N1         18.5313   27.3235    8.0686 N.pl3   1  lig        -0.3398
     32 O1         18.6101   25.3946    3.8208 O.co2   1  lig        -0.2464
     33 O2         18.6390   27.3828    2.9034 O.co2   1  lig        -0.2464
@<TRIPOS>BOND
     1    27    33    1
     2    27    32    1
     3    27    28    1
     4    28    29    1
     5     9    28    1
     6    10    28    1
     7    29    30    1
     8    11    29    1
     9    12    29    1
    10    30    31    1
    11    13    30    1
    12    14    30    1
    13    26    31    1
    14    20    31    1
    15    24    26   ar
    16    25    26   ar
    17    22    24   ar
    18     8    24    1
    19    23    25   ar
    20    19    25    1
    21    21    23   ar
    22     7    23    1
    23    21    22   ar
    24     5    21    1
    25     6    22    1
    26    19    20   ar
    27    17    19   ar
    28    18    20   ar
    29    16    18   ar
    30     4    18    1
    31    15    17   ar
    32     3    17    1
    33    15    16   ar
    34     1    15    1
    35     2    16    1
@<TRIPOS>SUBSTRUCTURE
     1 lig         1 TEMP              0 ****  ****    0 ROOT


########## Name:		ligand
########## HA_RMSDs:		15.0931
########## HA_RMSDh:		14.5722
########## HA_RMSDm:		8.0705
########## Cluster Size:	1
##########    Grid Score:          -14.604695
##########      Grid_vdw:          -14.407476
##########       Grid_es:           -0.197219
##########    Int_energy:            1.691533

@<TRIPOS>MOLECULE
ligand
 33 35 1 0 0
SMALL
No Charge or Current Charge


@<TRIPOS>ATOM
      1 H1         24.0391   12.6455   11.5671 H       1  lig         0.0618
      2 H2         25.0175   12.4722    9.3236 H       1  lig         0.0618
      3 H3         25.4838   12.7898   13.5936 H       1  lig         0.0624
      4 H4         27.4633   12.4046    8.9535 H       1  lig         0.0638
      5 H5         29.6415   12.9181   16.4750 H       1  lig         0.0618
      6 H6         31.7354   12.6450   15.2144 H       1  lig         0.0618
      7 H7         27.4463   12.8807   15.2971 H       1  lig         0.0624
      8 H8         31.7936   12.5525   12.7513 H       1  lig         0.0638
      9 H9         32.4243   13.1148    8.5749 H       1  lig         0.0379
     10 H10        31.1136   12.8798    7.4514 H       1  lig         0.0379
     11 H11        29.5992   14.1873    9.0774 H       1  lig         0.0288
     12 H12        30.9869   14.3972   10.1224 H       1  lig         0.0288
     13 H13        31.1665   11.9724   10.5114 H       1  lig         0.0492
     14 H14        29.8294   11.6740    9.4029 H       1  lig         0.0492
     15 C1         25.1199   12.6223   11.4600 C.ar    1  lig        -0.0611
     16 C2         25.6837   12.5165   10.1803 C.ar    1  lig        -0.0598
     17 C3         25.9235   12.7029   12.6035 C.ar    1  lig        -0.0520
     18 C4         27.0658   12.4809    9.9618 C.ar    1  lig        -0.0376
     19 C5         27.3029   12.6623   12.3986 C.ar    1  lig         0.0076
     20 C6         27.9252   12.5459   11.0647 C.ar    1  lig         0.0501
     21 C7         29.6124   12.8673   15.3884 C.ar    1  lig        -0.0611
     22 C8         30.8165   12.7783   14.6704 C.ar    1  lig        -0.0598
     23 C9         28.3724   12.8309   14.7355 C.ar    1  lig        -0.0520
     24 C10        30.8451   12.6625   13.2699 C.ar    1  lig        -0.0376
     25 C11        28.3944   12.7221   13.3513 C.ar    1  lig         0.0076
     26 C12        29.6427   12.6267   12.5616 C.ar    1  lig         0.0501
     27 C13        31.8535   14.8894    7.5831 C.2     1  lig         0.3561
     28 C14        31.4971   13.5595    8.2113 C.3     1  lig         0.0508
     29 C15        30.5289   13.7167    9.4000 C.3     1  lig        -0.0247
     30 C16        30.2339   12.3904   10.1243 C.3     1  lig         0.0244
     31 N1         29.2837   12.5385   11.2374 N.pl3   1  lig        -0.3398
     32 O1         32.9239   15.5656    7.9883 O.co2   1  lig        -0.2464
     33 O2         31.1665   15.3744    6.6959 O.co2   1  lig        -0.2464
@<TRIPOS>BOND
     1    27    33    1
     2    27    32    1
     3    27    28    1
     4    28    29    1
     5     9    28    1
     6    10    28    1
     7    29    30    1
     8    11    29    1
     9    12    29    1
    10    30    31    1
    11    13    30    1
    12    14    30    1
    13    26    31    1
    14    20    31    1
    15    24    26   ar
    16    25    26   ar
    17    22    24   ar
    18     8    24    1
    19    23    25   ar
    20    19    25    1
    21    21    23   ar
    22     7    23    1
    23    21    22   ar
    24     5    21    1
    25     6    22    1
    26    19    20   ar
    27    17    19   ar
    28    18    20   ar
    29    16    18   ar
    30     4    18    1
    31    15    17   ar
    32     3    17    1
    33    15    16   ar
    34     1    15    1
    35     2    16    1
@<TRIPOS>SUBSTRUCTURE
     1 lig         1 TEMP              0 ****  ****    0 ROOT


########## Name:		ligand
########## HA_RMSDs:		15.3200
########## HA_RMSDh:		15.2262
########## HA_RMSDm:		12.5812
########## Cluster Size:	1
##########    Grid Score:          -14.597606
##########      Grid_vdw:          -14.239565
##########       Grid_es:           -0.358041
##########    Int_energy:            1.619475

@<TRIPOS>MOLECULE
ligand
 33 35 1 0 0
SMALL
No Charge or Current Charge


@<TRIPOS>ATOM
      1 H1         25.1654   33.7127   18.2351 H       1  lig         0.0618
      2 H2         27.0667   33.6128   16.6873 H       1  lig         0.0618
      3 H3         23.1040   32.3706   17.8296 H       1  lig         0.0624
      4 H4         27.0343   32.2120   14.6476 H       1  lig         0.0638
      5 H5         19.8412   29.2191   15.5875 H       1  lig         0.0618
      6 H6         20.6277   28.3419   13.4288 H       1  lig         0.0618
      7 H7         21.2521   30.8026   16.8947 H       1  lig         0.0624
      8 H8         22.8948   28.7862   12.5677 H       1  lig         0.0638
      9 H9         26.7349   28.4546   11.0724 H       1  lig         0.0379
     10 H10        27.8814   29.6971   11.4933 H       1  lig         0.0379
     11 H11        27.1056   29.3156   13.9828 H       1  lig         0.0288
     12 H12        25.8857   28.2492   13.3220 H       1  lig         0.0288
     13 H13        24.8922   30.0967   12.0044 H       1  lig         0.0492
     14 H14        26.1150   31.2047   12.6227 H       1  lig         0.0492
     15 C1         25.1004   33.0791   17.3550 C.ar    1  lig        -0.0611
     16 C2         26.1818   33.0240   16.4639 C.ar    1  lig        -0.0598
     17 C3         23.9386   32.3296   17.1347 C.ar    1  lig        -0.0520
     18 C4         26.1730   32.2320   15.3098 C.ar    1  lig        -0.0376
     19 C5         23.9159   31.5408   15.9842 C.ar    1  lig         0.0076
     20 C6         25.0362   31.4667   15.0253 C.ar    1  lig         0.0501
     21 C7         20.8461   29.4567   15.2443 C.ar    1  lig        -0.0611
     22 C8         21.3138   28.8989   14.0428 C.ar    1  lig        -0.0598
     23 C9         21.6266   30.3608   15.9782 C.ar    1  lig        -0.0520
     24 C10        22.5832   29.2028   13.5217 C.ar    1  lig        -0.0376
     25 C11        22.8841   30.6609   15.4710 C.ar    1  lig         0.0076
     26 C12        23.4103   30.0925   14.2097 C.ar    1  lig         0.0501
     27 C13        28.3832   27.7245   12.1720 C.2     1  lig         0.3561
     28 C14        27.3742   28.8139   11.8798 C.3     1  lig         0.0508
     29 C15        26.4899   29.1329   13.1010 C.3     1  lig        -0.0247
     30 C16        25.5294   30.3130   12.8655 C.3     1  lig         0.0244
     31 N1         24.6737   30.6026   14.0265 N.pl3   1  lig        -0.3398
     32 O1         28.0989   26.4510   11.9177 O.co2   1  lig        -0.2464
     33 O2         29.4766   27.9869   12.6515 O.co2   1  lig        -0.2464
@<TRIPOS>BOND
     1    27    33    1
     2    27    32    1
     3    27    28    1
     4    28    29    1
     5     9    28    1
     6    10    28    1
     7    29    30    1
     8    11    29    1
     9    12    29    1
    10    30    31    1
    11    13    30    1
    12    14    30    1
    13    26    31    1
    14    20    31    1
    15    24    26   ar
    16    25    26   ar
    17    22    24   ar
    18     8    24    1
    19    23    25   ar
    20    19    25    1
    21    21    23   ar
    22     7    23    1
    23    21    22   ar
    24     5    21    1
    25     6    22    1
    26    19    20   ar
    27    17    19   ar
    28    18    20   ar
    29    16    18   ar
    30     4    18    1
    31    15    17   ar
    32     3    17    1
    33    15    16   ar
    34     1    15    1
    35     2    16    1
@<TRIPOS>SUBSTRUCTURE
     1 lig         1 TEMP              0 ****  ****    0 ROOT


########## Name:		ligand
########## HA_RMSDs:		16.7023
########## HA_RMSDh:		16.3096
########## HA_RMSDm:		14.3745
########## Cluster Size:	1
##########    Grid Score:          -14.488692
##########      Grid_vdw:          -13.682546
##########       Grid_es:           -0.806146
##########    Int_energy:            3.786361

@<TRIPOS>MOLECULE
ligand
 33 35 1 0 0
SMALL
No Charge or Current Charge


@<TRIPOS>ATOM
      1 H1         26.0816   29.9769    3.3990 H       1  lig         0.0618
      2 H2         24.0906   28.5706    3.6803 H       1  lig         0.0618
      3 H3         27.8793   30.0226    5.1255 H       1  lig         0.0624
      4 H4         23.7472   27.1568    5.6820 H       1  lig         0.0638
      5 H5         30.3999   29.0290    9.3992 H       1  lig         0.0618
      6 H6         29.1918   27.5474   10.9462 H       1  lig         0.0618
      7 H7         29.3763   29.6869    7.2251 H       1  lig         0.0624
      8 H8         27.0553   26.4713   10.3493 H       1  lig         0.0638
      9 H9         22.5988   27.5604    8.1994 H       1  lig         0.0379
     10 H10        21.8607   27.0861    9.7046 H       1  lig         0.0379
     11 H11        23.8491   26.0181   10.3383 H       1  lig         0.0288
     12 H12        24.7320   27.5075   10.0852 H       1  lig         0.0288
     13 H13        23.9929   26.0176    7.5951 H       1  lig         0.0492
     14 H14        25.2099   25.2774    8.6326 H       1  lig         0.0492
     15 C1         25.9812   29.3728    4.2963 C.ar    1  lig        -0.0611
     16 C2         24.8419   28.5726    4.4647 C.ar    1  lig        -0.0598
     17 C3         26.9951   29.4053    5.2610 C.ar    1  lig        -0.0520
     18 C4         24.6413   27.7677    5.5921 C.ar    1  lig        -0.0376
     19 C5         26.8034   28.6115    6.3921 C.ar    1  lig         0.0076
     20 C6         25.6126   27.7636    6.5998 C.ar    1  lig         0.0501
     21 C7         29.4519   28.5905    9.0940 C.ar    1  lig        -0.0611
     22 C8         28.7991   27.6927    9.9548 C.ar    1  lig        -0.0598
     23 C9         28.8761   28.9787    7.8761 C.ar    1  lig        -0.0520
     24 C10        27.5508   27.1286    9.6401 C.ar    1  lig        -0.0376
     25 C11        27.6453   28.4205    7.5571 C.ar    1  lig         0.0076
     26 C12        26.9285   27.4715    8.4384 C.ar    1  lig         0.0501
     27 C13        22.7989   29.0156    9.7163 C.2     1  lig         0.3561
     28 C14        22.7412   27.5674    9.2808 C.3     1  lig         0.0508
     29 C15        24.0407   26.8071    9.6097 C.3     1  lig        -0.0247
     30 C16        24.7388   26.2281    8.3655 C.3     1  lig         0.0244
     31 N1         25.7585   27.1274    7.8038 N.pl3   1  lig        -0.3398
     32 O1         23.7240   29.8348    9.2262 O.co2   1  lig        -0.2464
     33 O2         22.0036   29.4640   10.5293 O.co2   1  lig        -0.2464
@<TRIPOS>BOND
     1    27    33    1
     2    27    32    1
     3    27    28    1
     4    28    29    1
     5     9    28    1
     6    10    28    1
     7    29    30    1
     8    11    29    1
     9    12    29    1
    10    30    31    1
    11    13    30    1
    12    14    30    1
    13    26    31    1
    14    20    31    1
    15    24    26   ar
    16    25    26   ar
    17    22    24   ar
    18     8    24    1
    19    23    25   ar
    20    19    25    1
    21    21    23   ar
    22     7    23    1
    23    21    22   ar
    24     5    21    1
    25     6    22    1
    26    19    20   ar
    27    17    19   ar
    28    18    20   ar
    29    16    18   ar
    30     4    18    1
    31    15    17   ar
    32     3    17    1
    33    15    16   ar
    34     1    15    1
    35     2    16    1
@<TRIPOS>SUBSTRUCTURE
     1 lig         1 TEMP              0 ****  ****    0 ROOT


########## Name:		ligand
########## HA_RMSDs:		15.7453
########## HA_RMSDh:		15.6280
########## HA_RMSDm:		9.2808
########## Cluster Size:	1
##########    Grid Score:          -14.461843
##########      Grid_vdw:          -14.175483
##########       Grid_es:           -0.286360
##########    Int_energy:            4.311560

@<TRIPOS>MOLECULE
ligand
 33 35 1 0 0
SMALL
No Charge or Current Charge


@<TRIPOS>ATOM
      1 H1         15.0713   21.8320    6.3462 H       1  lig         0.0618
      2 H2         15.1523   21.9655    3.8975 H       1  lig         0.0618
      3 H3         13.7855   20.0315    7.4950 H       1  lig         0.0624
      4 H4         13.9546   20.3560    2.4489 H       1  lig         0.0638
      5 H5         10.8096   15.9940    8.1641 H       1  lig         0.0618
      6 H6          9.9180   15.0567    6.0726 H       1  lig         0.0618
      7 H7         12.2940   17.9944    8.1176 H       1  lig         0.0624
      8 H8         10.6093   15.8802    3.8539 H       1  lig         0.0638
      9 H9          9.4107   17.2670    2.2379 H       1  lig         0.0379
     10 H10         9.6564   18.4545    3.4887 H       1  lig         0.0379
     11 H11        11.0576   19.8018    1.7530 H       1  lig         0.0288
     12 H12        10.7913   18.4841    0.6330 H       1  lig         0.0288
     13 H13        13.0173   18.2803    1.6580 H       1  lig         0.0492
     14 H14        11.9963   16.8999    2.0551 H       1  lig         0.0492
     15 C1         14.5291   21.0981    5.7566 C.ar    1  lig        -0.0611
     16 C2         14.5669   21.1744    4.3568 C.ar    1  lig        -0.0598
     17 C3         13.8089   20.0911    6.4101 C.ar    1  lig        -0.0520
     18 C4         13.8951   20.2664    3.5302 C.ar    1  lig        -0.0376
     19 C5         13.1302   19.1835    5.5964 C.ar    1  lig         0.0076
     20 C6         13.1468   19.2417    4.1212 C.ar    1  lig         0.0501
     21 C7         11.1349   16.4031    7.2097 C.ar    1  lig        -0.0611
     22 C8         10.6740   15.8206    6.0173 C.ar    1  lig        -0.0598
     23 C9         11.9574   17.5382    7.1935 C.ar    1  lig        -0.0520
     24 C10        11.0193   16.3304    4.7539 C.ar    1  lig        -0.0376
     25 C11        12.3064   18.0433    5.9479 C.ar    1  lig         0.0076
     26 C12        11.8406   17.4562    4.6714 C.ar    1  lig         0.0501
     27 C13         8.3949   19.0812    1.8703 C.2     1  lig         0.3561
     28 C14         9.5925   18.3288    2.4086 C.3     1  lig         0.0508
     29 C15        10.8993   18.7241    1.6939 C.3     1  lig        -0.0247
     30 C16        12.1342   17.9722    2.2233 C.3     1  lig         0.0244
     31 N1         12.3834   18.2051    3.6543 N.pl3   1  lig        -0.3398
     32 O1          7.6895   18.5952    0.8536 O.co2   1  lig        -0.2464
     33 O2          8.0516   20.1515    2.3511 O.co2   1  lig        -0.2464
@<TRIPOS>BOND
     1    27    33    1
     2    27    32    1
     3    27    28    1
     4    28    29    1
     5     9    28    1
     6    10    28    1
     7    29    30    1
     8    11    29    1
     9    12    29    1
    10    30    31    1
    11    13    30    1
    12    14    30    1
    13    26    31    1
    14    20    31    1
    15    24    26   ar
    16    25    26   ar
    17    22    24   ar
    18     8    24    1
    19    23    25   ar
    20    19    25    1
    21    21    23   ar
    22     7    23    1
    23    21    22   ar
    24     5    21    1
    25     6    22    1
    26    19    20   ar
    27    17    19   ar
    28    18    20   ar
    29    16    18   ar
    30     4    18    1
    31    15    17   ar
    32     3    17    1
    33    15    16   ar
    34     1    15    1
    35     2    16    1
@<TRIPOS>SUBSTRUCTURE
     1 lig         1 TEMP              0 ****  ****    0 ROOT


########## Name:		ligand
########## HA_RMSDs:		5.2623
########## HA_RMSDh:		5.0746
########## HA_RMSDm:		2.2956
########## Cluster Size:	1
##########    Grid Score:          -14.433212
##########      Grid_vdw:          -14.651415
##########       Grid_es:            0.218202
##########    Int_energy:            2.927968

@<TRIPOS>MOLECULE
ligand
 33 35 1 0 0
SMALL
No Charge or Current Charge


@<TRIPOS>ATOM
      1 H1         16.8695   11.9129   20.4793 H       1  lig         0.0618
      2 H2         18.8944   12.6607   21.6458 H       1  lig         0.0618
      3 H3         15.8987   13.2410   18.6062 H       1  lig         0.0624
      4 H4         20.0569   14.7634   21.0534 H       1  lig         0.0638
      5 H5         15.2603   16.9728   15.2489 H       1  lig         0.0618
      6 H6         16.8826   18.8067   15.4782 H       1  lig         0.0618
      7 H7         15.3448   15.0146   16.7870 H       1  lig         0.0624
      8 H8         18.7779   18.7066   17.0519 H       1  lig         0.0638
      9 H9         20.8459   17.4844   16.5962 H       1  lig         0.0379
     10 H10        21.4933   18.8372   17.4829 H       1  lig         0.0379
     11 H11        22.3289   17.0579   19.2361 H       1  lig         0.0288
     12 H12        21.4408   15.8778   18.2977 H       1  lig         0.0288
     13 H13        19.9203   18.3001   19.2404 H       1  lig         0.0492
     14 H14        20.3296   17.0533   20.4166 H       1  lig         0.0492
     15 C1         17.3425   12.8432   20.1778 C.ar    1  lig        -0.0611
     16 C2         18.4962   13.2782   20.8460 C.ar    1  lig        -0.0598
     17 C3         16.7900   13.5831   19.1255 C.ar    1  lig        -0.0520
     18 C4         19.1616   14.4643   20.5152 C.ar    1  lig        -0.0376
     19 C5         17.4413   14.7705   18.7907 C.ar    1  lig         0.0076
     20 C6         18.6535   15.2567   19.4793 C.ar    1  lig         0.0501
     21 C7         16.0710   16.8867   15.9696 C.ar    1  lig        -0.0611
     22 C8         17.0329   17.9073   16.0497 C.ar    1  lig        -0.0598
     23 C9         16.1014   15.7893   16.8413 C.ar    1  lig        -0.0520
     24 C10        18.0770   17.8786   16.9901 C.ar    1  lig        -0.0376
     25 C11        17.1338   15.7526   17.7692 C.ar    1  lig         0.0076
     26 C12        18.1648   16.8087   17.8825 C.ar    1  lig         0.0501
     27 C13        22.9569   17.5260   16.6213 C.2     1  lig         0.3561
     28 C14        21.6272   17.7715   17.3010 C.3     1  lig         0.0508
     29 C15        21.4639   16.9326   18.5834 C.3     1  lig        -0.0247
     30 C16        20.1654   17.2409   19.3512 C.3     1  lig         0.0244
     31 N1         19.0194   16.4396   18.8942 N.pl3   1  lig        -0.3398
     32 O1         23.0262   16.8022   15.5084 O.co2   1  lig        -0.2464
     33 O2         23.9951   17.9805   17.0795 O.co2   1  lig        -0.2464
@<TRIPOS>BOND
     1    27    33    1
     2    27    32    1
     3    27    28    1
     4    28    29    1
     5     9    28    1
     6    10    28    1
     7    29    30    1
     8    11    29    1
     9    12    29    1
    10    30    31    1
    11    13    30    1
    12    14    30    1
    13    26    31    1
    14    20    31    1
    15    24    26   ar
    16    25    26   ar
    17    22    24   ar
    18     8    24    1
    19    23    25   ar
    20    19    25    1
    21    21    23   ar
    22     7    23    1
    23    21    22   ar
    24     5    21    1
    25     6    22    1
    26    19    20   ar
    27    17    19   ar
    28    18    20   ar
    29    16    18   ar
    30     4    18    1
    31    15    17   ar
    32     3    17    1
    33    15    16   ar
    34     1    15    1
    35     2    16    1
@<TRIPOS>SUBSTRUCTURE
     1 lig         1 TEMP              0 ****  ****    0 ROOT


########## Name:		ligand
########## HA_RMSDs:		14.7642
########## HA_RMSDh:		14.5606
########## HA_RMSDm:		9.6795
########## Cluster Size:	1
##########    Grid Score:          -14.395894
##########      Grid_vdw:          -14.271037
##########       Grid_es:           -0.124857
##########    Int_energy:            1.645957

@<TRIPOS>MOLECULE
ligand
 33 35 1 0 0
SMALL
No Charge or Current Charge


@<TRIPOS>ATOM
      1 H1         27.0889   16.4437    5.9680 H       1  lig         0.0618
      2 H2         29.3475   16.4532    6.9266 H       1  lig         0.0618
      3 H3         25.2561   15.1098    7.0055 H       1  lig         0.0624
      4 H4         29.9322   15.1339    8.9369 H       1  lig         0.0638
      5 H5         22.8583   11.9658   10.1631 H       1  lig         0.0618
      6 H6         24.3182   10.9640   11.8699 H       1  lig         0.0618
      7 H7         23.7903   13.5426    8.4742 H       1  lig         0.0624
      8 H8         26.6781   11.6233   12.1437 H       1  lig         0.0638
      9 H9         31.7523   12.4377   11.5233 H       1  lig         0.0379
     10 H10        30.7284   11.4045   12.4822 H       1  lig         0.0379
     11 H11        29.2343   11.1472   10.3556 H       1  lig         0.0288
     12 H12        30.3052   12.2859    9.5692 H       1  lig         0.0288
     13 H13        29.7118   14.0807   11.1110 H       1  lig         0.0492
     14 H14        28.7499   12.9771   12.0920 H       1  lig         0.0492
     15 C1         27.2918   15.8483    6.8537 C.ar    1  lig        -0.0611
     16 C2         28.5829   15.8452    7.4013 C.ar    1  lig        -0.0598
     17 C3         26.2569   15.1016    7.4292 C.ar    1  lig        -0.0520
     18 C4         28.9212   15.1046    8.5398 C.ar    1  lig        -0.0376
     19 C5         26.5837   14.3545    8.5612 C.ar    1  lig         0.0076
     20 C6         27.9344   14.3270    9.1568 C.ar    1  lig         0.0501
     21 C7         23.8977   12.2799   10.2333 C.ar    1  lig        -0.0611
     22 C8         24.7092   11.7538   11.2522 C.ar    1  lig        -0.0598
     23 C9         24.4173   13.1551    9.2694 C.ar    1  lig        -0.0520
     24 C10        26.0706   12.0829   11.3688 C.ar    1  lig        -0.0376
     25 C11        25.7607   13.4883    9.3825 C.ar    1  lig         0.0076
     26 C12        26.6456   12.9545   10.4422 C.ar    1  lig         0.0501
     27 C13        31.8267   10.4131   10.9283 C.2     1  lig         0.3561
     28 C14        31.0555   11.6009   11.4618 C.3     1  lig         0.0508
     29 C15        29.8882   12.0010   10.5386 C.3     1  lig        -0.0247
     30 C16        29.0735   13.1946   11.0697 C.3     1  lig         0.0244
     31 N1         27.8924   13.5000   10.2476 N.pl3   1  lig        -0.3398
     32 O1         32.8282   10.5845   10.0710 O.co2   1  lig        -0.2464
     33 O2         31.5458    9.2725   11.2668 O.co2   1  lig        -0.2464
@<TRIPOS>BOND
     1    27    33    1
     2    27    32    1
     3    27    28    1
     4    28    29    1
     5     9    28    1
     6    10    28    1
     7    29    30    1
     8    11    29    1
     9    12    29    1
    10    30    31    1
    11    13    30    1
    12    14    30    1
    13    26    31    1
    14    20    31    1
    15    24    26   ar
    16    25    26   ar
    17    22    24   ar
    18     8    24    1
    19    23    25   ar
    20    19    25    1
    21    21    23   ar
    22     7    23    1
    23    21    22   ar
    24     5    21    1
    25     6    22    1
    26    19    20   ar
    27    17    19   ar
    28    18    20   ar
    29    16    18   ar
    30     4    18    1
    31    15    17   ar
    32     3    17    1
    33    15    16   ar
    34     1    15    1
    35     2    16    1
@<TRIPOS>SUBSTRUCTURE
     1 lig         1 TEMP              0 ****  ****    0 ROOT


########## Name:		ligand
########## HA_RMSDs:		14.3567
########## HA_RMSDh:		14.1767
########## HA_RMSDm:		8.6908
########## Cluster Size:	1
##########    Grid Score:          -14.285686
##########      Grid_vdw:          -14.338908
##########       Grid_es:            0.053221
##########    Int_energy:            4.302505

@<TRIPOS>MOLECULE
ligand
 33 35 1 0 0
SMALL
No Charge or Current Charge


@<TRIPOS>ATOM
      1 H1         22.9121   12.1234   10.4374 H       1  lig         0.0618
      2 H2         24.6496   11.6989   12.1172 H       1  lig         0.0618
      3 H3         23.4248   13.3763    8.3440 H       1  lig         0.0624
      4 H4         26.9733   12.5043   11.8432 H       1  lig         0.0638
      5 H5         26.0212   15.9978    4.8812 H       1  lig         0.0618
      6 H6         28.3448   16.4754    5.5300 H       1  lig         0.0618
      7 H7         24.5192   14.7308    6.4129 H       1  lig         0.0624
      8 H8         29.3622   15.5531    7.5776 H       1  lig         0.0638
      9 H9         28.7518   11.4013   10.2922 H       1  lig         0.0379
     10 H10        30.1990   10.8350    9.5046 H       1  lig         0.0379
     11 H11        30.0135   13.0269    8.5654 H       1  lig         0.0288
     12 H12        31.0092   13.3658    9.9638 H       1  lig         0.0288
     13 H13        29.4012   15.0328   10.1670 H       1  lig         0.0492
     14 H14        28.7788   13.7890   11.2491 H       1  lig         0.0492
     15 C1         23.9178   12.4971   10.2667 C.ar    1  lig        -0.0611
     16 C2         24.9125   12.2629   11.2270 C.ar    1  lig        -0.0598
     17 C3         24.1965   13.2005    9.0888 C.ar    1  lig        -0.0520
     18 C4         26.2299   12.7120   11.0785 C.ar    1  lig        -0.0376
     19 C5         25.5050   13.6583    8.9323 C.ar    1  lig         0.0076
     20 C6         26.5716   13.4321    9.9279 C.ar    1  lig         0.0501
     21 C7         26.4190   15.5791    5.8034 C.ar    1  lig        -0.0611
     22 C8         27.7659   15.7999    6.1356 C.ar    1  lig        -0.0598
     23 C9         25.5626   14.8812    6.6664 C.ar    1  lig        -0.0520
     24 C10        28.3279   15.3264    7.3337 C.ar    1  lig        -0.0376
     25 C11        26.1134   14.4062    7.8493 C.ar    1  lig         0.0076
     26 C12        27.5273   14.6189    8.2323 C.ar    1  lig         0.0501
     27 C13        30.4403   11.4010   11.5601 C.2     1  lig         0.3561
     28 C14        29.8213   11.5907   10.1923 C.3     1  lig         0.0508
     29 C15        30.0182   13.0221    9.6563 C.3     1  lig        -0.0247
     30 C16        28.9830   14.0237   10.2002 C.3     1  lig         0.0244
     31 N1         27.7172   14.0111    9.4507 N.pl3   1  lig        -0.3398
     32 O1         29.8792   10.5903   12.4519 O.co2   1  lig        -0.2464
     33 O2         31.4634   11.9894   11.8788 O.co2   1  lig        -0.2464
@<TRIPOS>BOND
     1    27    33    1
     2    27    32    1
     3    27    28    1
     4    28    29    1
     5     9    28    1
     6    10    28    1
     7    29    30    1
     8    11    29    1
     9    12    29    1
    10    30    31    1
    11    13    30    1
    12    14    30    1
    13    26    31    1
    14    20    31    1
    15    24    26   ar
    16    25    26   ar
    17    22    24   ar
    18     8    24    1
    19    23    25   ar
    20    19    25    1
    21    21    23   ar
    22     7    23    1
    23    21    22   ar
    24     5    21    1
    25     6    22    1
    26    19    20   ar
    27    17    19   ar
    28    18    20   ar
    29    16    18   ar
    30     4    18    1
    31    15    17   ar
    32     3    17    1
    33    15    16   ar
    34     1    15    1
    35     2    16    1
@<TRIPOS>SUBSTRUCTURE
     1 lig         1 TEMP              0 ****  ****    0 ROOT


########## Name:		ligand
########## HA_RMSDs:		14.6299
########## HA_RMSDh:		14.4815
########## HA_RMSDm:		10.6070
########## Cluster Size:	1
##########    Grid Score:          -14.255881
##########      Grid_vdw:          -15.150477
##########       Grid_es:            0.894597
##########    Int_energy:            2.963750

@<TRIPOS>MOLECULE
ligand
 33 35 1 0 0
SMALL
No Charge or Current Charge


@<TRIPOS>ATOM
      1 H1         22.6911   29.9638    8.6086 H       1  lig         0.0618
      2 H2         22.1649   29.1575    6.3517 H       1  lig         0.0618
      3 H3         21.1869   29.4709   10.5345 H       1  lig         0.0624
      4 H4         20.1226   27.8488    5.8619 H       1  lig         0.0638
      5 H5         17.2270   27.7215   13.1544 H       1  lig         0.0618
      6 H6         15.5345   26.5973   11.7688 H       1  lig         0.0618
      7 H7         19.2732   28.6862   12.1106 H       1  lig         0.0624
      8 H8         15.8669   26.1685    9.3637 H       1  lig         0.0638
      9 H9         15.4125   26.3030    5.1051 H       1  lig         0.0379
     10 H10        15.5649   27.7811    4.1955 H       1  lig         0.0379
     11 H11        16.1149   28.2206    6.5951 H       1  lig         0.0288
     12 H12        17.5698   28.3819    5.6364 H       1  lig         0.0288
     13 H13        18.2996   26.0921    6.2476 H       1  lig         0.0492
     14 H14        16.8413   25.8806    7.2140 H       1  lig         0.0492
     15 C1         21.7821   29.3908    8.4483 C.ar    1  lig        -0.0611
     16 C2         21.4737   28.9337    7.1590 C.ar    1  lig        -0.0598
     17 C3         20.9428   29.1195    9.5355 C.ar    1  lig        -0.0520
     18 C4         20.3225   28.1902    6.8739 C.ar    1  lig        -0.0376
     19 C5         19.7890   28.3842    9.2624 C.ar    1  lig         0.0076
     20 C6         19.4351   27.8945    7.9152 C.ar    1  lig         0.0501
     21 C7         17.4150   27.5696   12.0934 C.ar    1  lig        -0.0611
     22 C8         16.4747   26.8681   11.3206 C.ar    1  lig        -0.0598
     23 C9         18.5611   28.1295   11.5119 C.ar    1  lig        -0.0520
     24 C10        16.6358   26.6789    9.9372 C.ar    1  lig        -0.0376
     25 C11        18.7285   27.9412   10.1463 C.ar    1  lig         0.0076
     26 C12        17.7600   27.2079    9.3006 C.ar    1  lig         0.0501
     27 C13        17.1093   26.3326    3.8487 C.2     1  lig         0.3561
     28 C14        16.1345   27.0447    4.7612 C.3     1  lig         0.0508
     29 C15        16.8298   27.6600    5.9913 C.3     1  lig        -0.0247
     30 C16        17.5640   26.6211    6.8586 C.3     1  lig         0.0244
     31 N1         18.2501   27.2156    8.0162 N.pl3   1  lig        -0.3398
     32 O1         17.3670   25.0384    4.0094 O.co2   1  lig        -0.2464
     33 O2         17.6847   26.9281    2.9493 O.co2   1  lig        -0.2464
@<TRIPOS>BOND
     1    27    33    1
     2    27    32    1
     3    27    28    1
     4    28    29    1
     5     9    28    1
     6    10    28    1
     7    29    30    1
     8    11    29    1
     9    12    29    1
    10    30    31    1
    11    13    30    1
    12    14    30    1
    13    26    31    1
    14    20    31    1
    15    24    26   ar
    16    25    26   ar
    17    22    24   ar
    18     8    24    1
    19    23    25   ar
    20    19    25    1
    21    21    23   ar
    22     7    23    1
    23    21    22   ar
    24     5    21    1
    25     6    22    1
    26    19    20   ar
    27    17    19   ar
    28    18    20   ar
    29    16    18   ar
    30     4    18    1
    31    15    17   ar
    32     3    17    1
    33    15    16   ar
    34     1    15    1
    35     2    16    1
@<TRIPOS>SUBSTRUCTURE
     1 lig         1 TEMP              0 ****  ****    0 ROOT


########## Name:		ligand
########## HA_RMSDs:		14.2866
########## HA_RMSDh:		14.0716
########## HA_RMSDm:		9.5774
########## Cluster Size:	1
##########    Grid Score:          -14.188909
##########      Grid_vdw:          -14.490434
##########       Grid_es:            0.301525
##########    Int_energy:            2.800733

@<TRIPOS>MOLECULE
ligand
 33 35 1 0 0
SMALL
No Charge or Current Charge


@<TRIPOS>ATOM
      1 H1         18.0361   27.7431   14.0068 H       1  lig         0.0618
      2 H2         15.9817   27.0483   12.8592 H       1  lig         0.0618
      3 H3         20.0883   28.3398   12.7233 H       1  lig         0.0624
      4 H4         15.8416   26.8771   10.3945 H       1  lig         0.0638
      5 H5         23.1987   29.0965    8.8044 H       1  lig         0.0618
      6 H6         22.2131   28.5226    6.6256 H       1  lig         0.0618
      7 H7         21.8826   28.8059   10.8998 H       1  lig         0.0624
      8 H8         19.8506   27.8631    6.3754 H       1  lig         0.0638
      9 H9         14.9918   28.7285    8.0940 H       1  lig         0.0379
     10 H10        16.3564   29.7389    8.4842 H       1  lig         0.0379
     11 H11        17.5467   28.8053    6.4055 H       1  lig         0.0288
     12 H12        16.1086   27.8729    6.0532 H       1  lig         0.0288
     13 H13        17.6801   26.3654    7.0804 H       1  lig         0.0492
     14 H14        16.3544   26.6317    8.2105 H       1  lig         0.0492
     15 C1         18.0274   27.6870   12.9219 C.ar    1  lig        -0.0611
     16 C2         16.8576   27.2839   12.2619 C.ar    1  lig        -0.0598
     17 C3         19.1846   28.0230   12.2093 C.ar    1  lig        -0.0520
     18 C4         16.7689   27.1875   10.8683 C.ar    1  lig        -0.0376
     19 C5         19.1099   27.9251   10.8196 C.ar    1  lig         0.0076
     20 C6         17.8949   27.4986   10.0973 C.ar    1  lig         0.0501
     21 C7         22.1542   28.7963    8.7489 C.ar    1  lig        -0.0611
     22 C8         21.5785   28.5341    7.4947 C.ar    1  lig        -0.0598
     23 C9         21.4263   28.6202    9.9339 C.ar    1  lig        -0.0520
     24 C10        20.2493   28.0977    7.3586 C.ar    1  lig        -0.0376
     25 C11        20.1108   28.1944    9.8057 C.ar    1  lig         0.0076
     26 C12        19.4707   27.9090    8.5019 C.ar    1  lig         0.0501
     27 C13        15.2331   30.3479    6.7606 C.2     1  lig         0.3561
     28 C14        15.8242   29.2780    7.6529 C.3     1  lig         0.0508
     29 C15        16.7065   28.2867    6.8693 C.3     1  lig        -0.0247
     30 C16        17.2105   27.1113    7.7265 C.3     1  lig         0.0244
     31 N1         18.1770   27.5202    8.7574 N.pl3   1  lig        -0.3398
     32 O1         14.0862   30.1402    6.1213 O.co2   1  lig        -0.2464
     33 O2         15.7955   31.4217    6.6024 O.co2   1  lig        -0.2464
@<TRIPOS>BOND
     1    27    33    1
     2    27    32    1
     3    27    28    1
     4    28    29    1
     5     9    28    1
     6    10    28    1
     7    29    30    1
     8    11    29    1
     9    12    29    1
    10    30    31    1
    11    13    30    1
    12    14    30    1
    13    26    31    1
    14    20    31    1
    15    24    26   ar
    16    25    26   ar
    17    22    24   ar
    18     8    24    1
    19    23    25   ar
    20    19    25    1
    21    21    23   ar
    22     7    23    1
    23    21    22   ar
    24     5    21    1
    25     6    22    1
    26    19    20   ar
    27    17    19   ar
    28    18    20   ar
    29    16    18   ar
    30     4    18    1
    31    15    17   ar
    32     3    17    1
    33    15    16   ar
    34     1    15    1
    35     2    16    1
@<TRIPOS>SUBSTRUCTURE
     1 lig         1 TEMP              0 ****  ****    0 ROOT


########## Name:		ligand
########## HA_RMSDs:		15.4726
########## HA_RMSDh:		15.3157
########## HA_RMSDm:		10.9964
########## Cluster Size:	1
##########    Grid Score:          -14.053044
##########      Grid_vdw:          -14.190627
##########       Grid_es:            0.137582
##########    Int_energy:            2.890462

@<TRIPOS>MOLECULE
ligand
 33 35 1 0 0
SMALL
No Charge or Current Charge


@<TRIPOS>ATOM
      1 H1         20.6806   30.2269   15.0202 H       1  lig         0.0618
      2 H2         22.3989   31.7629   15.8620 H       1  lig         0.0618
      3 H3         21.2699   28.3531   13.4851 H       1  lig         0.0624
      4 H4         24.7800   31.5569   15.2206 H       1  lig         0.0638
      5 H5         24.0345   25.2926   10.5533 H       1  lig         0.0618
      6 H6         26.4005   25.9427   10.3871 H       1  lig         0.0618
      7 H7         22.4501   26.6391   11.9259 H       1  lig         0.0624
      8 H8         27.3634   27.7809   11.7185 H       1  lig         0.0638
      9 H9         27.8262   30.0810   11.2524 H       1  lig         0.0379
     10 H10        27.3005   31.6040   10.5896 H       1  lig         0.0379
     11 H11        26.0567   31.8325   12.5639 H       1  lig         0.0288
     12 H12        27.5923   32.1335   13.3472 H       1  lig         0.0288
     13 H13        26.9677   30.3944   14.6811 H       1  lig         0.0492
     14 H14        27.7175   29.4474   13.3980 H       1  lig         0.0492
     15 C1         21.7125   30.0905   14.7093 C.ar    1  lig        -0.0611
     16 C2         22.6970   30.9699   15.1823 C.ar    1  lig        -0.0598
     17 C3         22.0343   29.0361   13.8462 C.ar    1  lig        -0.0520
     18 C4         24.0464   30.8586   14.8272 C.ar    1  lig        -0.0376
     19 C5         23.3755   28.9187   13.4805 C.ar    1  lig         0.0076
     20 C6         24.4328   29.8322   13.9576 C.ar    1  lig         0.0501
     21 C7         24.4077   26.1217   11.1511 C.ar    1  lig        -0.0611
     22 C8         25.7737   26.4461   11.1025 C.ar    1  lig        -0.0598
     23 C9         23.5063   26.8832   11.9079 C.ar    1  lig        -0.0520
     24 C10        26.3097   27.5335   11.8137 C.ar    1  lig        -0.0376
     25 C11        24.0309   27.9556   12.6172 C.ar    1  lig         0.0076
     26 C12        25.4636   28.3269   12.5906 C.ar    1  lig         0.0501
     27 C13        29.2336   31.6322   11.5201 C.2     1  lig         0.3561
     28 C14        27.7997   31.1539   11.4468 C.3     1  lig         0.0508
     29 C15        27.0361   31.3955   12.7635 C.3     1  lig        -0.0247
     30 C16        26.8906   30.1272   13.6243 C.3     1  lig         0.0244
     31 N1         25.6176   29.4231   13.4058 N.pl3   1  lig        -0.3398
     32 O1         30.0905   31.0783   12.3722 O.co2   1  lig        -0.2464
     33 O2         29.6356   32.5385   10.8049 O.co2   1  lig        -0.2464
@<TRIPOS>BOND
     1    27    33    1
     2    27    32    1
     3    27    28    1
     4    28    29    1
     5     9    28    1
     6    10    28    1
     7    29    30    1
     8    11    29    1
     9    12    29    1
    10    30    31    1
    11    13    30    1
    12    14    30    1
    13    26    31    1
    14    20    31    1
    15    24    26   ar
    16    25    26   ar
    17    22    24   ar
    18     8    24    1
    19    23    25   ar
    20    19    25    1
    21    21    23   ar
    22     7    23    1
    23    21    22   ar
    24     5    21    1
    25     6    22    1
    26    19    20   ar
    27    17    19   ar
    28    18    20   ar
    29    16    18   ar
    30     4    18    1
    31    15    17   ar
    32     3    17    1
    33    15    16   ar
    34     1    15    1
    35     2    16    1
@<TRIPOS>SUBSTRUCTURE
     1 lig         1 TEMP              0 ****  ****    0 ROOT


########## Name:		ligand
########## HA_RMSDs:		13.7720
########## HA_RMSDh:		13.7566
########## HA_RMSDm:		10.1922
########## Cluster Size:	1
##########    Grid Score:          -13.895267
##########      Grid_vdw:          -14.031987
##########       Grid_es:            0.136721
##########    Int_energy:            2.643042

@<TRIPOS>MOLECULE
ligand
 33 35 1 0 0
SMALL
No Charge or Current Charge


@<TRIPOS>ATOM
      1 H1         28.0585   16.2071    9.3538 H       1  lig         0.0618
      2 H2         29.0042   14.3187   10.6029 H       1  lig         0.0618
      3 H3         25.9865   15.9417    7.9933 H       1  lig         0.0624
      4 H4         27.9816   12.0657   10.5610 H       1  lig         0.0638
      5 H5         21.9795   13.7650    5.7999 H       1  lig         0.0618
      6 H6         21.8035   11.3487    6.2223 H       1  lig         0.0618
      7 H7         23.8692   15.0779    6.7552 H       1  lig         0.0624
      8 H8         23.3178   10.1620    7.7641 H       1  lig         0.0638
      9 H9         25.4268    8.6645   12.6083 H       1  lig         0.0379
     10 H10        24.9989    7.9481   11.0790 H       1  lig         0.0379
     11 H11        26.0021   10.8239   11.6058 H       1  lig         0.0288
     12 H12        24.3934   10.3467   11.1095 H       1  lig         0.0288
     13 H13        25.2590    9.5232    8.9260 H       1  lig         0.0492
     14 H14        26.8859   10.0160    9.3906 H       1  lig         0.0492
     15 C1         27.5685   15.2389    9.3032 C.ar    1  lig        -0.0611
     16 C2         28.1091   14.1549   10.0100 C.ar    1  lig        -0.0598
     17 C3         26.4059   15.0987    8.5360 C.ar    1  lig        -0.0520
     18 C4         27.5353   12.8783    9.9943 C.ar    1  lig        -0.0376
     19 C5         25.8283   13.8291    8.5080 C.ar    1  lig         0.0076
     20 C6         26.3773   12.6682    9.2368 C.ar    1  lig         0.0501
     21 C7         22.6824   13.2849    6.4778 C.ar    1  lig        -0.0611
     22 C8         22.5363   11.9180    6.7671 C.ar    1  lig        -0.0598
     23 C9         23.7514   14.0278    6.9979 C.ar    1  lig        -0.0520
     24 C10        23.4375   11.2290    7.5970 C.ar    1  lig        -0.0376
     25 C11        24.6421   13.3537    7.8229 C.ar    1  lig         0.0076
     26 C12        24.5199   11.9153    8.1503 C.ar    1  lig         0.0501
     27 C13        27.1026    8.2157   11.4047 C.2     1  lig         0.3561
     28 C14        25.6665    8.6722   11.5444 C.3     1  lig         0.0508
     29 C15        25.4527   10.0992   11.0033 C.3     1  lig        -0.0247
     30 C16        25.8242   10.2486    9.5165 C.3     1  lig         0.0244
     31 N1         25.5624   11.5961    8.9877 N.pl3   1  lig        -0.3398
     32 O1         28.0280    8.6136   12.2722 O.co2   1  lig        -0.2464
     33 O2         27.4462    7.4779   10.4925 O.co2   1  lig        -0.2464
@<TRIPOS>BOND
     1    27    33    1
     2    27    32    1
     3    27    28    1
     4    28    29    1
     5     9    28    1
     6    10    28    1
     7    29    30    1
     8    11    29    1
     9    12    29    1
    10    30    31    1
    11    13    30    1
    12    14    30    1
    13    26    31    1
    14    20    31    1
    15    24    26   ar
    16    25    26   ar
    17    22    24   ar
    18     8    24    1
    19    23    25   ar
    20    19    25    1
    21    21    23   ar
    22     7    23    1
    23    21    22   ar
    24     5    21    1
    25     6    22    1
    26    19    20   ar
    27    17    19   ar
    28    18    20   ar
    29    16    18   ar
    30     4    18    1
    31    15    17   ar
    32     3    17    1
    33    15    16   ar
    34     1    15    1
    35     2    16    1
@<TRIPOS>SUBSTRUCTURE
     1 lig         1 TEMP              0 ****  ****    0 ROOT


########## Name:		ligand
########## HA_RMSDs:		13.5953
########## HA_RMSDh:		13.5600
########## HA_RMSDm:		10.7183
########## Cluster Size:	1
##########    Grid Score:          -13.479475
##########      Grid_vdw:          -13.386279
##########       Grid_es:           -0.093196
##########    Int_energy:            4.249035

@<TRIPOS>MOLECULE
ligand
 33 35 1 0 0
SMALL
No Charge or Current Charge


@<TRIPOS>ATOM
      1 H1         27.3939   16.8479    8.0784 H       1  lig         0.0618
      2 H2         28.8723   15.6698    9.6427 H       1  lig         0.0618
      3 H3         25.6189   15.6305    6.8205 H       1  lig         0.0624
      4 H4         28.7040   13.2322   10.0341 H       1  lig         0.0638
      5 H5         22.7442   11.8264    5.1264 H       1  lig         0.0618
      6 H6         23.4007    9.6202    5.9922 H       1  lig         0.0618
      7 H7         24.0042   13.8693    5.7944 H       1  lig         0.0624
      8 H8         25.1510    9.3395    7.7058 H       1  lig         0.0638
      9 H9         25.0893   10.2977   10.4057 H       1  lig         0.0379
     10 H10        25.5685    9.5774   11.9180 H       1  lig         0.0379
     11 H11        27.8126   10.0488   11.4287 H       1  lig         0.0288
     12 H12        27.4120   11.7371   11.2022 H       1  lig         0.0288
     13 H13        27.0283    9.6408    9.0237 H       1  lig         0.0492
     14 H14        28.4483   10.6732    9.1755 H       1  lig         0.0492
     15 C1         27.2759   15.7766    8.2154 C.ar    1  lig        -0.0611
     16 C2         28.1230   15.0978    9.1032 C.ar    1  lig        -0.0598
     17 C3         26.2772   15.1009    7.5042 C.ar    1  lig        -0.0520
     18 C4         28.0325   13.7200    9.3329 C.ar    1  lig        -0.0376
     19 C5         26.1812   13.7260    7.7205 C.ar    1  lig         0.0076
     20 C6         27.0619   12.9834    8.6441 C.ar    1  lig         0.0501
     21 C7         23.5339   11.7543    5.8715 C.ar    1  lig        -0.0611
     22 C8         23.8592   10.4989    6.4115 C.ar    1  lig        -0.0598
     23 C9         24.2477   12.9065    6.2294 C.ar    1  lig        -0.0520
     24 C10        24.8993   10.3319    7.3419 C.ar    1  lig        -0.0376
     25 C11        25.2732   12.7487    7.1524 C.ar    1  lig         0.0076
     26 C12        25.6437   11.4428    7.7427 C.ar    1  lig         0.0501
     27 C13        25.0715   11.6623   12.0169 C.2     1  lig         0.3561
     28 C14        25.6790   10.4722   11.3065 C.3     1  lig         0.0508
     29 C15        27.1425   10.7236   10.8942 C.3     1  lig        -0.0247
     30 C16        27.3742   10.6158    9.3758 C.3     1  lig         0.0244
     31 N1         26.6867   11.6668    8.6099 N.pl3   1  lig        -0.3398
     32 O1         24.7151   12.7481   11.3377 O.co2   1  lig        -0.2464
     33 O2         24.8992   11.6565   13.2272 O.co2   1  lig        -0.2464
@<TRIPOS>BOND
     1    27    33    1
     2    27    32    1
     3    27    28    1
     4    28    29    1
     5     9    28    1
     6    10    28    1
     7    29    30    1
     8    11    29    1
     9    12    29    1
    10    30    31    1
    11    13    30    1
    12    14    30    1
    13    26    31    1
    14    20    31    1
    15    24    26   ar
    16    25    26   ar
    17    22    24   ar
    18     8    24    1
    19    23    25   ar
    20    19    25    1
    21    21    23   ar
    22     7    23    1
    23    21    22   ar
    24     5    21    1
    25     6    22    1
    26    19    20   ar
    27    17    19   ar
    28    18    20   ar
    29    16    18   ar
    30     4    18    1
    31    15    17   ar
    32     3    17    1
    33    15    16   ar
    34     1    15    1
    35     2    16    1
@<TRIPOS>SUBSTRUCTURE
     1 lig         1 TEMP              0 ****  ****    0 ROOT


########## Name:		ligand
########## HA_RMSDs:		14.9526
########## HA_RMSDh:		14.5993
########## HA_RMSDm:		10.8048
########## Cluster Size:	1
##########    Grid Score:          -13.411881
##########      Grid_vdw:          -13.000737
##########       Grid_es:           -0.411144
##########    Int_energy:            5.429892

@<TRIPOS>MOLECULE
ligand
 33 35 1 0 0
SMALL
No Charge or Current Charge


@<TRIPOS>ATOM
      1 H1         22.6831   16.7038    3.2358 H       1  lig         0.0618
      2 H2         21.1703   15.7302    4.9043 H       1  lig         0.0618
      3 H3         25.0319   15.9009    3.0044 H       1  lig         0.0624
      4 H4         21.8907   13.9373    6.4503 H       1  lig         0.0638
      5 H5         29.2743   13.2837    3.8743 H       1  lig         0.0618
      6 H6         29.1153   11.7330    5.7763 H       1  lig         0.0618
      7 H7         27.3281   14.7033    3.2384 H       1  lig         0.0624
      8 H8         27.0040   11.3364    6.9863 H       1  lig         0.0638
      9 H9         25.4642   12.8368   10.4137 H       1  lig         0.0379
     10 H10        26.2310   12.4730    8.8921 H       1  lig         0.0379
     11 H11        23.5728   13.8702    8.6424 H       1  lig         0.0288
     12 H12        23.4881   12.3402    9.4873 H       1  lig         0.0288
     13 H13        23.0657   11.8237    7.1946 H       1  lig         0.0492
     14 H14        24.6815   11.2244    7.5628 H       1  lig         0.0492
     15 C1         23.0493   15.9166    3.8887 C.ar    1  lig        -0.0611
     16 C2         22.1905   15.3617    4.8484 C.ar    1  lig        -0.0598
     17 C3         24.3700   15.4725    3.7524 C.ar    1  lig        -0.0520
     18 C4         22.5888   14.3453    5.7244 C.ar    1  lig        -0.0376
     19 C5         24.7803   14.4636    4.6242 C.ar    1  lig         0.0076
     20 C6         23.9010   13.8643    5.6478 C.ar    1  lig         0.0501
     21 C7         28.3223   13.1553    4.3853 C.ar    1  lig        -0.0611
     22 C8         28.2207   12.2193    5.4279 C.ar    1  lig        -0.0598
     23 C9         27.2374   13.9694    4.0312 C.ar    1  lig        -0.0520
     24 C10        27.0333   12.0392    6.1580 C.ar    1  lig        -0.0376
     25 C11        26.0597   13.7923    4.7455 C.ar    1  lig         0.0076
     26 C12        25.9155   12.8164    5.8490 C.ar    1  lig         0.0501
     27 C13        25.9341   14.5607    9.2885 C.2     1  lig         0.3561
     28 C14        25.4869   13.1167    9.3597 C.3     1  lig         0.0508
     29 C15        24.0791   12.9121    8.7672 C.3     1  lig        -0.0247
     30 C16        24.0849   12.1332    7.4390 C.3     1  lig         0.0244
     31 N1         24.6254   12.9122    6.3143 N.pl3   1  lig        -0.3398
     32 O1         26.8797   15.0187   10.1030 O.co2   1  lig        -0.2464
     33 O2         25.4357   15.3387    8.4880 O.co2   1  lig        -0.2464
@<TRIPOS>BOND
     1    27    33    1
     2    27    32    1
     3    27    28    1
     4    28    29    1
     5     9    28    1
     6    10    28    1
     7    29    30    1
     8    11    29    1
     9    12    29    1
    10    30    31    1
    11    13    30    1
    12    14    30    1
    13    26    31    1
    14    20    31    1
    15    24    26   ar
    16    25    26   ar
    17    22    24   ar
    18     8    24    1
    19    23    25   ar
    20    19    25    1
    21    21    23   ar
    22     7    23    1
    23    21    22   ar
    24     5    21    1
    25     6    22    1
    26    19    20   ar
    27    17    19   ar
    28    18    20   ar
    29    16    18   ar
    30     4    18    1
    31    15    17   ar
    32     3    17    1
    33    15    16   ar
    34     1    15    1
    35     2    16    1
@<TRIPOS>SUBSTRUCTURE
     1 lig         1 TEMP              0 ****  ****    0 ROOT


########## Name:		ligand
########## HA_RMSDs:		14.6504
########## HA_RMSDh:		14.2304
########## HA_RMSDm:		10.3079
########## Cluster Size:	1
##########    Grid Score:          -13.269927
##########      Grid_vdw:          -12.166410
##########       Grid_es:           -1.103517
##########    Int_energy:            3.354620

@<TRIPOS>MOLECULE
ligand
 33 35 1 0 0
SMALL
No Charge or Current Charge


@<TRIPOS>ATOM
      1 H1         19.5974    9.0582    7.9870 H       1  lig         0.0618
      2 H2         21.0847   11.0050    7.8517 H       1  lig         0.0618
      3 H3         20.0919    7.1658    9.5327 H       1  lig         0.0624
      4 H4         23.1482   11.1844    9.2058 H       1  lig         0.0638
      5 H5         22.4916    4.3288   12.9675 H       1  lig         0.0618
      6 H6         24.6387    5.2694   13.7113 H       1  lig         0.0618
      7 H7         21.1126    5.5217   11.2697 H       1  lig         0.0624
      8 H8         25.4187    7.5007   13.0100 H       1  lig         0.0638
      9 H9         27.9217    9.9449    9.3034 H       1  lig         0.0379
     10 H10        27.7815    9.9895   11.0394 H       1  lig         0.0379
     11 H11        25.3983    9.5753    9.1104 H       1  lig         0.0288
     12 H12        25.9115   11.1457    9.6868 H       1  lig         0.0288
     13 H13        24.6294   10.9286   11.5078 H       1  lig         0.0492
     14 H14        25.6385    9.5841   12.0367 H       1  lig         0.0492
     15 C1         20.4899    9.0880    8.6057 C.ar    1  lig        -0.0611
     16 C2         21.3465   10.1955    8.5268 C.ar    1  lig        -0.0598
     17 C3         20.7602    8.0205    9.4701 C.ar    1  lig        -0.0520
     18 C4         22.5137   10.3064    9.2914 C.ar    1  lig        -0.0376
     19 C5         21.9242    8.1172   10.2331 C.ar    1  lig         0.0076
     20 C6         22.8478    9.2673   10.1675 C.ar    1  lig         0.0501
     21 C7         22.7982    5.3123   12.6170 C.ar    1  lig        -0.0611
     22 C8         23.9934    5.8731   13.0970 C.ar    1  lig        -0.0598
     23 C9         22.0242    5.9689   11.6501 C.ar    1  lig        -0.0520
     24 C10        24.4682    7.1177   12.6487 C.ar    1  lig        -0.0376
     25 C11        22.4854    7.2016   11.2073 C.ar    1  lig         0.0076
     26 C12        23.7388    7.8235   11.6903 C.ar    1  lig         0.0501
     27 C13        27.4082    8.0764   10.1424 C.2     1  lig         0.3561
     28 C14        27.3188    9.5871   10.1390 C.3     1  lig         0.0508
     29 C15        25.8729   10.0855    9.9498 C.3     1  lig        -0.0247
     30 C16        25.0102    9.9462   11.2175 C.3     1  lig         0.0244
     31 N1         23.8724    9.0299   11.0447 N.pl3   1  lig        -0.3398
     32 O1         27.7573    7.4203   11.2446 O.co2   1  lig        -0.2464
     33 O2         27.1681    7.4261    9.1355 O.co2   1  lig        -0.2464
@<TRIPOS>BOND
     1    27    33    1
     2    27    32    1
     3    27    28    1
     4    28    29    1
     5     9    28    1
     6    10    28    1
     7    29    30    1
     8    11    29    1
     9    12    29    1
    10    30    31    1
    11    13    30    1
    12    14    30    1
    13    26    31    1
    14    20    31    1
    15    24    26   ar
    16    25    26   ar
    17    22    24   ar
    18     8    24    1
    19    23    25   ar
    20    19    25    1
    21    21    23   ar
    22     7    23    1
    23    21    22   ar
    24     5    21    1
    25     6    22    1
    26    19    20   ar
    27    17    19   ar
    28    18    20   ar
    29    16    18   ar
    30     4    18    1
    31    15    17   ar
    32     3    17    1
    33    15    16   ar
    34     1    15    1
    35     2    16    1
@<TRIPOS>SUBSTRUCTURE
     1 lig         1 TEMP              0 ****  ****    0 ROOT


########## Name:		ligand
########## HA_RMSDs:		15.9551
########## HA_RMSDh:		15.5713
########## HA_RMSDm:		9.6764
########## Cluster Size:	2
##########    Grid Score:          -13.269659
##########      Grid_vdw:          -12.322697
##########       Grid_es:           -0.946962
##########    Int_energy:            5.722776

@<TRIPOS>MOLECULE
ligand
 33 35 1 0 0
SMALL
No Charge or Current Charge


@<TRIPOS>ATOM
      1 H1          9.5769   17.2570    6.0363 H       1  lig         0.0618
      2 H2          8.5689   18.2484    4.0309 H       1  lig         0.0618
      3 H3         11.8772   17.8840    6.7647 H       1  lig         0.0624
      4 H4          9.7748   19.8860    2.6211 H       1  lig         0.0638
      5 H5         16.4248   20.1031    6.7819 H       1  lig         0.0618
      6 H6         16.8348   21.5484    4.8349 H       1  lig         0.0618
      7 H7         14.2660   18.8809    7.0129 H       1  lig         0.0624
      8 H8         15.0915   22.0394    3.1620 H       1  lig         0.0638
      9 H9         11.2406   24.7400    2.6057 H       1  lig         0.0379
     10 H10        10.6101   23.7616    1.3093 H       1  lig         0.0379
     11 H11        12.9982   23.1969    3.1716 H       1  lig         0.0288
     12 H12        13.0052   23.3600    1.4294 H       1  lig         0.0288
     13 H13        13.0142   21.1067    1.3478 H       1  lig         0.0492
     14 H14        11.2910   21.2282    1.6959 H       1  lig         0.0492
     15 C1         10.1491   17.9736    5.4538 C.ar    1  lig        -0.0611
     16 C2          9.5798   18.5378    4.3031 C.ar    1  lig        -0.0598
     17 C3         11.4404   18.3191    5.8697 C.ar    1  lig        -0.0520
     18 C4         10.2536   19.4670    3.5020 C.ar    1  lig        -0.0376
     19 C5         12.1242   19.2401    5.0756 C.ar    1  lig         0.0076
     20 C6         11.5534   19.8465    3.8564 C.ar    1  lig         0.0501
     21 C7         15.6264   20.2764    6.0631 C.ar    1  lig        -0.0611
     22 C8         15.8450   21.1553    4.9893 C.ar    1  lig        -0.0598
     23 C9         14.4211   19.5724    6.1924 C.ar    1  lig        -0.0520
     24 C10        14.8718   21.3858    4.0018 C.ar    1  lig        -0.0376
     25 C11        13.4536   19.8001    5.2226 C.ar    1  lig         0.0076
     26 C12        13.6479   20.7187    4.0783 C.ar    1  lig         0.0501
     27 C13        10.1035   23.0955    3.2850 C.2     1  lig         0.3561
     28 C14        11.0704   23.7084    2.2952 C.3     1  lig         0.0508
     29 C15        12.4247   22.9734    2.2710 C.3     1  lig        -0.0247
     30 C16        12.2878   21.4507    2.0883 C.3     1  lig         0.0244
     31 N1         12.4911   20.6981    3.3358 N.pl3   1  lig        -0.3398
     32 O1         10.3299   23.1756    4.5925 O.co2   1  lig        -0.2464
     33 O2          9.0985   22.5102    2.9082 O.co2   1  lig        -0.2464
@<TRIPOS>BOND
     1    27    33    1
     2    27    32    1
     3    27    28    1
     4    28    29    1
     5     9    28    1
     6    10    28    1
     7    29    30    1
     8    11    29    1
     9    12    29    1
    10    30    31    1
    11    13    30    1
    12    14    30    1
    13    26    31    1
    14    20    31    1
    15    24    26   ar
    16    25    26   ar
    17    22    24   ar
    18     8    24    1
    19    23    25   ar
    20    19    25    1
    21    21    23   ar
    22     7    23    1
    23    21    22   ar
    24     5    21    1
    25     6    22    1
    26    19    20   ar
    27    17    19   ar
    28    18    20   ar
    29    16    18   ar
    30     4    18    1
    31    15    17   ar
    32     3    17    1
    33    15    16   ar
    34     1    15    1
    35     2    16    1
@<TRIPOS>SUBSTRUCTURE
     1 lig         1 TEMP              0 ****  ****    0 ROOT


########## Name:		ligand
########## HA_RMSDs:		15.1047
########## HA_RMSDh:		14.7489
########## HA_RMSDm:		13.0348
########## Cluster Size:	2
##########    Grid Score:          -13.106533
##########      Grid_vdw:          -13.186091
##########       Grid_es:            0.079558
##########    Int_energy:            3.748040

@<TRIPOS>MOLECULE
ligand
 33 35 1 0 0
SMALL
No Charge or Current Charge


@<TRIPOS>ATOM
      1 H1         13.5714    5.7699   12.1496 H       1  lig         0.0618
      2 H2         15.8655    5.7399   11.2797 H       1  lig         0.0618
      3 H3         13.0040    4.6834   14.3204 H       1  lig         0.0624
      4 H4         17.7165    4.6197   12.4807 H       1  lig         0.0638
      5 H5         13.5474    2.0773   18.6236 H       1  lig         0.0618
      6 H6         15.8117    1.1807   18.9656 H       1  lig         0.0618
      7 H7         13.0066    3.3901   16.5763 H       1  lig         0.0624
      8 H8         17.6863    1.7114   17.4545 H       1  lig         0.0638
      9 H9         20.8467    5.4574   15.6296 H       1  lig         0.0379
     10 H10        19.7271    5.3409   14.2998 H       1  lig         0.0379
     11 H11        19.1064    3.7442   16.8240 H       1  lig         0.0288
     12 H12        20.4877    3.2346   15.8784 H       1  lig         0.0288
     13 H13        18.7898    1.9189   14.9640 H       1  lig         0.0492
     14 H14        18.9129    3.2503   13.8162 H       1  lig         0.0492
     15 C1         14.3479    5.2660   12.7182 C.ar    1  lig        -0.0611
     16 C2         15.6592    5.2403   12.2218 C.ar    1  lig        -0.0598
     17 C3         14.0201    4.6577   13.9358 C.ar    1  lig        -0.0520
     18 C4         16.7125    4.6118   12.8961 C.ar    1  lig        -0.0376
     19 C5         15.0608    4.0229   14.6142 C.ar    1  lig         0.0076
     20 C6         16.4492    3.9745   14.1141 C.ar    1  lig         0.0501
     21 C7         14.3375    2.3289   17.9191 C.ar    1  lig        -0.0611
     22 C8         15.6436    1.8689   18.1554 C.ar    1  lig        -0.0598
     23 C9         14.0207    3.0544   16.7622 C.ar    1  lig        -0.0520
     24 C10        16.6980    2.1196   17.2606 C.ar    1  lig        -0.0376
     25 C11        15.0596    3.3100   15.8768 C.ar    1  lig         0.0076
     26 C12        16.4472    2.8421   16.0927 C.ar    1  lig         0.0501
     27 C13        18.9289    6.2108   16.0914 C.2     1  lig         0.3561
     28 C14        19.8142    5.2120   15.3780 C.3     1  lig         0.0508
     29 C15        19.5325    3.7628   15.8200 C.3     1  lig        -0.0247
     30 C16        18.6279    2.9926   14.8406 C.3     1  lig         0.0244
     31 N1         17.1973    3.2800   15.0270 N.pl3   1  lig        -0.3398
     32 O1         19.2620    6.6765   17.2912 O.co2   1  lig        -0.2464
     33 O2         17.8886    6.6078   15.5868 O.co2   1  lig        -0.2464
@<TRIPOS>BOND
     1    27    33    1
     2    27    32    1
     3    27    28    1
     4    28    29    1
     5     9    28    1
     6    10    28    1
     7    29    30    1
     8    11    29    1
     9    12    29    1
    10    30    31    1
    11    13    30    1
    12    14    30    1
    13    26    31    1
    14    20    31    1
    15    24    26   ar
    16    25    26   ar
    17    22    24   ar
    18     8    24    1
    19    23    25   ar
    20    19    25    1
    21    21    23   ar
    22     7    23    1
    23    21    22   ar
    24     5    21    1
    25     6    22    1
    26    19    20   ar
    27    17    19   ar
    28    18    20   ar
    29    16    18   ar
    30     4    18    1
    31    15    17   ar
    32     3    17    1
    33    15    16   ar
    34     1    15    1
    35     2    16    1
@<TRIPOS>SUBSTRUCTURE
     1 lig         1 TEMP              0 ****  ****    0 ROOT


########## Name:		ligand
########## HA_RMSDs:		13.8991
########## HA_RMSDh:		13.7221
########## HA_RMSDm:		9.1066
########## Cluster Size:	1
##########    Grid Score:          -12.983235
##########      Grid_vdw:          -13.545156
##########       Grid_es:            0.561920
##########    Int_energy:            3.438193

@<TRIPOS>MOLECULE
ligand
 33 35 1 0 0
SMALL
No Charge or Current Charge


@<TRIPOS>ATOM
      1 H1         27.2182   16.8105    8.9138 H       1  lig         0.0618
      2 H2         27.3949   16.1444    6.5589 H       1  lig         0.0618
      3 H3         26.3936   15.2162   10.6438 H       1  lig         0.0624
      4 H4         26.7467   13.8887    5.7745 H       1  lig         0.0638
      5 H5         24.5599   10.9864   12.7297 H       1  lig         0.0618
      6 H6         24.0638    9.2087   11.1044 H       1  lig         0.0618
      7 H7         25.4624   13.1789   11.9645 H       1  lig         0.0624
      8 H8         24.6329    9.4064    8.7136 H       1  lig         0.0638
      9 H9         22.8272   10.2274    6.0403 H       1  lig         0.0379
     10 H10        23.1063   11.3844    7.3126 H       1  lig         0.0379
     11 H11        24.4932   12.6444    5.3083 H       1  lig         0.0288
     12 H12        24.4802   11.0339    4.6242 H       1  lig         0.0288
     13 H13        26.5567   11.3182    5.8523 H       1  lig         0.0492
     14 H14        25.5614   10.1014    6.6487 H       1  lig         0.0492
     15 C1         26.9226   15.8065    8.6228 C.ar    1  lig        -0.0611
     16 C2         27.0153   15.4233    7.2770 C.ar    1  lig        -0.0598
     17 C3         26.4598   14.9181    9.6008 C.ar    1  lig        -0.0520
     18 C4         26.6540   14.1487    6.8254 C.ar    1  lig        -0.0376
     19 C5         26.0910   13.6463    9.1616 C.ar    1  lig         0.0076
     20 C6         26.1722   13.2162    7.7515 C.ar    1  lig         0.0501
     21 C7         24.8171   11.1285   11.6820 C.ar    1  lig        -0.0611
     22 C8         24.5926   10.0842   10.7697 C.ar    1  lig        -0.0598
     23 C9         25.3095   12.3707   11.2581 C.ar    1  lig        -0.0520
     24 C10        24.8593   10.2208    9.3965 C.ar    1  lig        -0.0376
     25 C11        25.5801   12.5099    9.9032 C.ar    1  lig         0.0076
     26 C12        25.3569   11.4323    8.9133 C.ar    1  lig         0.0501
     27 C13        21.9484   12.1089    5.6580 C.2     1  lig         0.3561
     28 C14        23.0731   11.2730    6.2295 C.3     1  lig         0.0508
     29 C15        24.4282   11.5864    5.5659 C.3     1  lig        -0.0247
     30 C16        25.6370   11.1694    6.4236 C.3     1  lig         0.0244
     31 N1         25.7370   11.9194    7.6852 N.pl3   1  lig        -0.3398
     32 O1         21.1322   11.6080    4.7360 O.co2   1  lig        -0.2464
     33 O2         21.7671   13.2610    6.0244 O.co2   1  lig        -0.2464
@<TRIPOS>BOND
     1    27    33    1
     2    27    32    1
     3    27    28    1
     4    28    29    1
     5     9    28    1
     6    10    28    1
     7    29    30    1
     8    11    29    1
     9    12    29    1
    10    30    31    1
    11    13    30    1
    12    14    30    1
    13    26    31    1
    14    20    31    1
    15    24    26   ar
    16    25    26   ar
    17    22    24   ar
    18     8    24    1
    19    23    25   ar
    20    19    25    1
    21    21    23   ar
    22     7    23    1
    23    21    22   ar
    24     5    21    1
    25     6    22    1
    26    19    20   ar
    27    17    19   ar
    28    18    20   ar
    29    16    18   ar
    30     4    18    1
    31    15    17   ar
    32     3    17    1
    33    15    16   ar
    34     1    15    1
    35     2    16    1
@<TRIPOS>SUBSTRUCTURE
     1 lig         1 TEMP              0 ****  ****    0 ROOT


########## Name:		ligand
########## HA_RMSDs:		14.7426
########## HA_RMSDh:		14.7426
########## HA_RMSDm:		11.5125
########## Cluster Size:	1
##########    Grid Score:          -12.611862
##########      Grid_vdw:          -12.512403
##########       Grid_es:           -0.099460
##########    Int_energy:            4.234518

@<TRIPOS>MOLECULE
ligand
 33 35 1 0 0
SMALL
No Charge or Current Charge


@<TRIPOS>ATOM
      1 H1         27.9662    8.7606    5.5792 H       1  lig         0.0618
      2 H2         28.6597    9.3672    7.8533 H       1  lig         0.0618
      3 H3         26.1273    9.9855    4.4246 H       1  lig         0.0624
      4 H4         27.5676   11.1891    9.1229 H       1  lig         0.0638
      5 H5         22.3762   13.2860    3.6245 H       1  lig         0.0618
      6 H6         21.8567   14.6944    5.5724 H       1  lig         0.0618
      7 H7         24.1754   11.5675    3.7546 H       1  lig         0.0624
      8 H8         23.2049   14.6465    7.6361 H       1  lig         0.0638
      9 H9         25.3989   15.4789    7.9408 H       1  lig         0.0379
     10 H10        26.2143   16.5170    9.0779 H       1  lig         0.0379
     11 H11        26.6927   14.6529   10.4137 H       1  lig         0.0288
     12 H12        27.4974   13.8950    9.0573 H       1  lig         0.0288
     13 H13        24.4789   13.7812    9.4608 H       1  lig         0.0492
     14 H14        25.6031   12.5313    9.9894 H       1  lig         0.0492
     15 C1         27.4549    9.5707    6.0914 C.ar    1  lig        -0.0611
     16 C2         27.8431    9.9166    7.3938 C.ar    1  lig        -0.0598
     17 C3         26.4228   10.2525    5.4358 C.ar    1  lig        -0.0520
     18 C4         27.2331   10.9477    8.1177 C.ar    1  lig        -0.0376
     19 C5         25.8031   11.2785    6.1498 C.ar    1  lig         0.0076
     20 C6         26.1860   11.6615    7.5234 C.ar    1  lig         0.0501
     21 C7         22.9930   13.2165    4.5182 C.ar    1  lig        -0.0611
     22 C8         22.7329   14.0704    5.6030 C.ar    1  lig        -0.0598
     23 C9         23.9925   12.2361    4.5883 C.ar    1  lig        -0.0520
     24 C10        23.4622   13.9990    6.8023 C.ar    1  lig        -0.0376
     25 C11        24.7202   12.1643    5.7689 C.ar    1  lig         0.0076
     26 C12        24.4751   13.0470    6.9316 C.ar    1  lig         0.0501
     27 C13        27.4319   15.7948    7.4655 C.2     1  lig         0.3561
     28 C14        26.3329   15.6082    8.4891 C.3     1  lig         0.0508
     29 C15        26.5612   14.3644    9.3699 C.3     1  lig        -0.0247
     30 C16        25.4424   13.3143    9.2421 C.3     1  lig         0.0244
     31 N1         25.3777   12.6979    7.9080 N.pl3   1  lig        -0.3398
     32 O1         27.2778   15.3611    6.2184 O.co2   1  lig        -0.2464
     33 O2         28.4849   16.3414    7.7603 O.co2   1  lig        -0.2464
@<TRIPOS>BOND
     1    27    33    1
     2    27    32    1
     3    27    28    1
     4    28    29    1
     5     9    28    1
     6    10    28    1
     7    29    30    1
     8    11    29    1
     9    12    29    1
    10    30    31    1
    11    13    30    1
    12    14    30    1
    13    26    31    1
    14    20    31    1
    15    24    26   ar
    16    25    26   ar
    17    22    24   ar
    18     8    24    1
    19    23    25   ar
    20    19    25    1
    21    21    23   ar
    22     7    23    1
    23    21    22   ar
    24     5    21    1
    25     6    22    1
    26    19    20   ar
    27    17    19   ar
    28    18    20   ar
    29    16    18   ar
    30     4    18    1
    31    15    17   ar
    32     3    17    1
    33    15    16   ar
    34     1    15    1
    35     2    16    1
@<TRIPOS>SUBSTRUCTURE
     1 lig         1 TEMP              0 ****  ****    0 ROOT


########## Name:		ligand
########## HA_RMSDs:		14.6089
########## HA_RMSDh:		14.5841
########## HA_RMSDm:		13.1113
########## Cluster Size:	1
##########    Grid Score:          -12.600131
##########      Grid_vdw:          -12.304076
##########       Grid_es:           -0.296055
##########    Int_energy:           13.166900

@<TRIPOS>MOLECULE
ligand
 33 35 1 0 0
SMALL
No Charge or Current Charge


@<TRIPOS>ATOM
      1 H1         21.2862   34.8060   15.1737 H       1  lig         0.0618
      2 H2         21.5128   32.6873   16.3904 H       1  lig         0.0618
      3 H3         19.8271   34.9841   13.1602 H       1  lig         0.0624
      4 H4         20.3410   30.6269   15.6797 H       1  lig         0.0638
      5 H5         16.6716   33.6496    9.4364 H       1  lig         0.0618
      6 H6         16.1000   31.2577    9.4248 H       1  lig         0.0618
      7 H7         18.2186   34.5683   11.1598 H       1  lig         0.0624
      8 H8         16.8228   29.7168   11.2086 H       1  lig         0.0638
      9 H9         21.7086   28.2706   12.6637 H       1  lig         0.0379
     10 H10        21.1676   29.9071   12.9180 H       1  lig         0.0379
     11 H11        19.4911   27.3432   13.3669 H       1  lig         0.0288
     12 H12        19.3945   28.3796   11.9602 H       1  lig         0.0288
     13 H13        18.6259   29.1875   14.7956 H       1  lig         0.0492
     14 H14        17.5321   28.8813   13.4483 H       1  lig         0.0492
     15 C1         20.7475   33.9312   14.8207 C.ar    1  lig        -0.0611
     16 C2         20.8792   32.7164   15.5088 C.ar    1  lig        -0.0598
     17 C3         19.9311   34.0401   13.6886 C.ar    1  lig        -0.0520
     18 C4         20.2175   31.5473   15.1156 C.ar    1  lig        -0.0376
     19 C5         19.2711   32.8796   13.2836 C.ar    1  lig         0.0076
     20 C6         19.3945   31.5858   13.9841 C.ar    1  lig         0.0501
     21 C7         17.0281   33.0076   10.2393 C.ar    1  lig        -0.0611
     22 C8         16.6436   31.6567   10.2636 C.ar    1  lig        -0.0598
     23 C9         17.9107   33.5293   11.1954 C.ar    1  lig        -0.0520
     24 C10        17.1071   30.7649   11.2461 C.ar    1  lig        -0.0376
     25 C11        18.3678   32.6543   12.1720 C.ar    1  lig         0.0076
     26 C12        17.9841   31.2258   12.2296 C.ar    1  lig         0.0501
     27 C13        21.4626   28.7554   14.7041 C.2     1  lig         0.3561
     28 C14        21.0297   28.8819   13.2595 C.3     1  lig         0.0508
     29 C15        19.5907   28.3778   13.0355 C.3     1  lig        -0.0247
     30 C16        18.5245   29.2605   13.7099 C.3     1  lig         0.0244
     31 N1         18.6151   30.6761   13.3203 N.pl3   1  lig        -0.3398
     32 O1         22.3437   29.6039   15.2247 O.co2   1  lig        -0.2464
     33 O2         21.0191   27.8713   15.4225 O.co2   1  lig        -0.2464
@<TRIPOS>BOND
     1    27    33    1
     2    27    32    1
     3    27    28    1
     4    28    29    1
     5     9    28    1
     6    10    28    1
     7    29    30    1
     8    11    29    1
     9    12    29    1
    10    30    31    1
    11    13    30    1
    12    14    30    1
    13    26    31    1
    14    20    31    1
    15    24    26   ar
    16    25    26   ar
    17    22    24   ar
    18     8    24    1
    19    23    25   ar
    20    19    25    1
    21    21    23   ar
    22     7    23    1
    23    21    22   ar
    24     5    21    1
    25     6    22    1
    26    19    20   ar
    27    17    19   ar
    28    18    20   ar
    29    16    18   ar
    30     4    18    1
    31    15    17   ar
    32     3    17    1
    33    15    16   ar
    34     1    15    1
    35     2    16    1
@<TRIPOS>SUBSTRUCTURE
     1 lig         1 TEMP              0 ****  ****    0 ROOT


########## Name:		ligand
########## HA_RMSDs:		13.9857
########## HA_RMSDh:		13.9246
########## HA_RMSDm:		8.6163
########## Cluster Size:	1
##########    Grid Score:          -12.500100
##########      Grid_vdw:          -12.081766
##########       Grid_es:           -0.418334
##########    Int_energy:            2.764018

@<TRIPOS>MOLECULE
ligand
 33 35 1 0 0
SMALL
No Charge or Current Charge


@<TRIPOS>ATOM
      1 H1         27.5959   12.4200   12.4124 H       1  lig         0.0618
      2 H2         25.6807   13.7909   11.7244 H       1  lig         0.0618
      3 H3         27.6996    9.9890   11.8697 H       1  lig         0.0624
      4 H4         23.7557   12.8429   10.4917 H       1  lig         0.0638
      5 H5         26.3448    5.4452   10.1023 H       1  lig         0.0618
      6 H6         24.1058    5.3991    9.0863 H       1  lig         0.0618
      7 H7         27.2510    7.5583   11.0620 H       1  lig         0.0624
      8 H8         22.7593    7.4386    8.7603 H       1  lig         0.0638
      9 H9         22.8739   12.6625    7.6142 H       1  lig         0.0379
     10 H10        24.2985   11.6602    7.5833 H       1  lig         0.0379
     11 H11        22.6866    9.6254    7.2838 H       1  lig         0.0288
     12 H12        21.3641   10.7595    7.4477 H       1  lig         0.0288
     13 H13        21.6589    9.7144    9.5981 H       1  lig         0.0492
     14 H14        22.1596   11.3989    9.7295 H       1  lig         0.0492
     15 C1         26.7774   11.9544   11.8706 C.ar    1  lig        -0.0611
     16 C2         25.6776   12.7323   11.4812 C.ar    1  lig        -0.0598
     17 C3         26.8436   10.5884   11.5709 C.ar    1  lig        -0.0520
     18 C4         24.5864   12.2049   10.7810 C.ar    1  lig        -0.0376
     19 C5         25.7587   10.0502   10.8784 C.ar    1  lig         0.0076
     20 C6         24.5851   10.8425   10.4603 C.ar    1  lig         0.0501
     21 C7         25.7839    6.3714    9.9947 C.ar    1  lig        -0.0611
     22 C8         24.5342    6.3495    9.3536 C.ar    1  lig        -0.0598
     23 C9         26.2945    7.5522   10.5516 C.ar    1  lig        -0.0520
     24 C10        23.7399    7.5018    9.2242 C.ar    1  lig        -0.0376
     25 C11        25.5166    8.6953   10.4222 C.ar    1  lig         0.0076
     26 C12        24.1962    8.7104    9.7533 C.ar    1  lig         0.0501
     27 C13        23.2521   11.8169    5.7167 C.2     1  lig         0.3561
     28 C14        23.2710   11.7234    7.2270 C.3     1  lig         0.0508
     29 C15        22.3966   10.5676    7.7509 C.3     1  lig        -0.0247
     30 C16        22.4196   10.4337    9.2846 C.3     1  lig         0.0244
     31 N1         23.7245   10.0005    9.8076 N.pl3   1  lig        -0.3398
     32 O1         22.3414   12.5591    5.0946 O.co2   1  lig        -0.2464
     33 O2         24.0664   11.2113    5.0350 O.co2   1  lig        -0.2464
@<TRIPOS>BOND
     1    27    33    1
     2    27    32    1
     3    27    28    1
     4    28    29    1
     5     9    28    1
     6    10    28    1
     7    29    30    1
     8    11    29    1
     9    12    29    1
    10    30    31    1
    11    13    30    1
    12    14    30    1
    13    26    31    1
    14    20    31    1
    15    24    26   ar
    16    25    26   ar
    17    22    24   ar
    18     8    24    1
    19    23    25   ar
    20    19    25    1
    21    21    23   ar
    22     7    23    1
    23    21    22   ar
    24     5    21    1
    25     6    22    1
    26    19    20   ar
    27    17    19   ar
    28    18    20   ar
    29    16    18   ar
    30     4    18    1
    31    15    17   ar
    32     3    17    1
    33    15    16   ar
    34     1    15    1
    35     2    16    1
@<TRIPOS>SUBSTRUCTURE
     1 lig         1 TEMP              0 ****  ****    0 ROOT


########## Name:		ligand
########## HA_RMSDs:		16.6330
########## HA_RMSDh:		16.6198
########## HA_RMSDm:		10.5607
########## Cluster Size:	1
##########    Grid Score:          -12.425629
##########      Grid_vdw:          -11.836376
##########       Grid_es:           -0.589252
##########    Int_energy:            1.649875

@<TRIPOS>MOLECULE
ligand
 33 35 1 0 0
SMALL
No Charge or Current Charge


@<TRIPOS>ATOM
      1 H1         13.3181   14.8831    5.3025 H       1  lig         0.0618
      2 H2         12.3650   13.8655    7.3215 H       1  lig         0.0618
      3 H3         11.8660   16.0248    3.6283 H       1  lig         0.0624
      4 H4          9.9352   13.8917    7.7899 H       1  lig         0.0638
      5 H5          7.7040   17.7900    1.3552 H       1  lig         0.0618
      6 H6          5.6146   17.2151    2.5179 H       1  lig         0.0618
      7 H7          9.8991   17.0322    2.2578 H       1  lig         0.0624
      8 H8          5.5883   16.0839    4.7084 H       1  lig         0.0638
      9 H9          6.1953   12.6258    8.5983 H       1  lig         0.0379
     10 H10         4.8232   13.3634    7.8183 H       1  lig         0.0379
     11 H11         6.1798   13.2303    5.5971 H       1  lig         0.0288
     12 H12         7.5026   12.5746    6.5364 H       1  lig         0.0288
     13 H13         7.6598   14.6467    7.8833 H       1  lig         0.0492
     14 H14         6.3124   15.3420    6.9852 H       1  lig         0.0492
     15 C1         12.2443   14.9248    5.4613 C.ar    1  lig        -0.0611
     16 C2         11.6941   14.3387    6.6104 C.ar    1  lig        -0.0598
     17 C3         11.4363   15.5671    4.5155 C.ar    1  lig        -0.0520
     18 C4         10.3216   14.3518    6.8846 C.ar    1  lig        -0.0376
     19 C5         10.0656   15.5814    4.7751 C.ar    1  lig         0.0076
     20 C6          9.4571   14.9683    5.9726 C.ar    1  lig         0.0501
     21 C7          7.7456   17.2764    2.3136 C.ar    1  lig        -0.0611
     22 C8          6.5521   17.0099    3.0048 C.ar    1  lig        -0.0598
     23 C9          8.9836   16.8400    2.8058 C.ar    1  lig        -0.0520
     24 C10         6.5341   16.3095    4.2233 C.ar    1  lig        -0.0376
     25 C11         8.9728   16.1521    4.0121 C.ar    1  lig         0.0076
     26 C12         7.7358   15.8537    4.7683 C.ar    1  lig         0.0501
     27 C13         5.1702   11.3094    7.3042 C.2     1  lig         0.3561
     28 C14         5.6677   12.6970    7.6465 C.3     1  lig         0.0508
     29 C15         6.6413   13.2459    6.5854 C.3     1  lig        -0.0247
     30 C16         7.1629   14.6577    6.9101 C.3     1  lig         0.0244
     31 N1          8.1046   15.1718    5.9037 N.pl3   1  lig        -0.3398
     32 O1          5.8298   10.2315    7.7170 O.co2   1  lig        -0.2464
     33 O2          4.1577   11.1465    6.6387 O.co2   1  lig        -0.2464
@<TRIPOS>BOND
     1    27    33    1
     2    27    32    1
     3    27    28    1
     4    28    29    1
     5     9    28    1
     6    10    28    1
     7    29    30    1
     8    11    29    1
     9    12    29    1
    10    30    31    1
    11    13    30    1
    12    14    30    1
    13    26    31    1
    14    20    31    1
    15    24    26   ar
    16    25    26   ar
    17    22    24   ar
    18     8    24    1
    19    23    25   ar
    20    19    25    1
    21    21    23   ar
    22     7    23    1
    23    21    22   ar
    24     5    21    1
    25     6    22    1
    26    19    20   ar
    27    17    19   ar
    28    18    20   ar
    29    16    18   ar
    30     4    18    1
    31    15    17   ar
    32     3    17    1
    33    15    16   ar
    34     1    15    1
    35     2    16    1
@<TRIPOS>SUBSTRUCTURE
     1 lig         1 TEMP              0 ****  ****    0 ROOT


########## Name:		ligand
########## HA_RMSDs:		14.5236
########## HA_RMSDh:		14.4869
########## HA_RMSDm:		11.5860
########## Cluster Size:	1
##########    Grid Score:          -11.998047
##########      Grid_vdw:          -12.082086
##########       Grid_es:            0.084039
##########    Int_energy:            5.934378

@<TRIPOS>MOLECULE
ligand
 33 35 1 0 0
SMALL
No Charge or Current Charge


@<TRIPOS>ATOM
      1 H1         27.8613   17.2769    5.1285 H       1  lig         0.0618
      2 H2         28.4850   17.4875    7.4922 H       1  lig         0.0618
      3 H3         27.0266   15.1168    4.2054 H       1  lig         0.0624
      4 H4         28.3477   15.5835    9.0668 H       1  lig         0.0638
      5 H5         25.6579   10.2506    3.9770 H       1  lig         0.0618
      6 H6         25.9892    9.0232    6.0822 H       1  lig         0.0618
      7 H7         26.2632   12.6619    3.8144 H       1  lig         0.0624
      8 H8         26.7037   10.1358    8.1632 H       1  lig         0.0638
      9 H9         25.7919   11.1774   10.2742 H       1  lig         0.0379
     10 H10        25.1542   12.0046   11.6685 H       1  lig         0.0379
     11 H11        27.0633   13.3585   11.4836 H       1  lig         0.0288
     12 H12        26.2317   14.0930   10.1306 H       1  lig         0.0288
     13 H13        27.8657   11.5988    9.6313 H       1  lig         0.0492
     14 H14        28.6694   13.1586    9.7939 H       1  lig         0.0492
     15 C1         27.7797   16.4099    5.7781 C.ar    1  lig        -0.0611
     16 C2         28.1414   16.5236    7.1282 C.ar    1  lig        -0.0598
     17 C3         27.3109   15.2007    5.2510 C.ar    1  lig        -0.0520
     18 C4         28.0637   15.4528    8.0262 C.ar    1  lig        -0.0376
     19 C5         27.2348   14.1244    6.1354 C.ar    1  lig         0.0076
     20 C6         27.6136   14.2123    7.5597 C.ar    1  lig         0.0501
     21 C7         25.9894   10.7853    4.8649 C.ar    1  lig        -0.0611
     22 C8         26.1129   10.0923    6.0805 C.ar    1  lig        -0.0598
     23 C9         26.3427   12.1378    4.7602 C.ar    1  lig        -0.0520
     24 C10        26.5802   10.7137    7.2513 C.ar    1  lig        -0.0376
     25 C11        26.8000   12.7588    5.9150 C.ar    1  lig         0.0076
     26 C12        26.9427   12.0613    7.2128 C.ar    1  lig         0.0501
     27 C13        24.2685   12.5585    9.7944 C.2     1  lig         0.3561
     28 C14        25.4605   12.1523   10.6337 C.3     1  lig         0.0508
     29 C15        26.6308   13.1467   10.5048 C.3     1  lig        -0.0247
     30 C16        27.7237   12.6773    9.5272 C.3     1  lig         0.0244
     31 N1         27.4112   12.9800    8.1219 N.pl3   1  lig        -0.3398
     32 O1         23.0311   12.2902   10.1994 O.co2   1  lig        -0.2464
     33 O2         24.4137   13.1357    8.7266 O.co2   1  lig        -0.2464
@<TRIPOS>BOND
     1    27    33    1
     2    27    32    1
     3    27    28    1
     4    28    29    1
     5     9    28    1
     6    10    28    1
     7    29    30    1
     8    11    29    1
     9    12    29    1
    10    30    31    1
    11    13    30    1
    12    14    30    1
    13    26    31    1
    14    20    31    1
    15    24    26   ar
    16    25    26   ar
    17    22    24   ar
    18     8    24    1
    19    23    25   ar
    20    19    25    1
    21    21    23   ar
    22     7    23    1
    23    21    22   ar
    24     5    21    1
    25     6    22    1
    26    19    20   ar
    27    17    19   ar
    28    18    20   ar
    29    16    18   ar
    30     4    18    1
    31    15    17   ar
    32     3    17    1
    33    15    16   ar
    34     1    15    1
    35     2    16    1
@<TRIPOS>SUBSTRUCTURE
     1 lig         1 TEMP              0 ****  ****    0 ROOT


########## Name:		ligand
########## HA_RMSDs:		14.5565
########## HA_RMSDh:		14.1877
########## HA_RMSDm:		11.4242
########## Cluster Size:	1
##########    Grid Score:          -11.722921
##########      Grid_vdw:          -11.485518
##########       Grid_es:           -0.237404
##########    Int_energy:            2.926894

@<TRIPOS>MOLECULE
ligand
 33 35 1 0 0
SMALL
No Charge or Current Charge


@<TRIPOS>ATOM
      1 H1         32.1779   15.3103    8.2755 H       1  lig         0.0618
      2 H2         30.0839   14.4003    7.3766 H       1  lig         0.0618
      3 H3         32.9494   14.7338   10.5749 H       1  lig         0.0624
      4 H4         28.6249   12.8991    8.6961 H       1  lig         0.0638
      5 H5         32.9984   12.7016   15.2088 H       1  lig         0.0618
      6 H6         30.9865   11.3923   15.7431 H       1  lig         0.0618
      7 H7         33.2236   13.8204   12.9940 H       1  lig         0.0624
      8 H8         29.2273   10.9321   14.0781 H       1  lig         0.0638
      9 H9         25.5720   13.8102   11.3464 H       1  lig         0.0379
     10 H10        26.5105   13.2136   10.0052 H       1  lig         0.0379
     11 H11        26.3690   11.5969   12.6101 H       1  lig         0.0288
     12 H12        27.3594   13.0384   12.5544 H       1  lig         0.0288
     13 H13        27.8797   11.3177   10.2277 H       1  lig         0.0492
     14 H14        28.1615   10.4829   11.7538 H       1  lig         0.0492
     15 C1         31.5753   14.6531    8.8961 C.ar    1  lig        -0.0611
     16 C2         30.3744   14.1360    8.3893 C.ar    1  lig        -0.0598
     17 C3         32.0158   14.3355   10.1865 C.ar    1  lig        -0.0520
     18 C4         29.5450   13.2838    9.1275 C.ar    1  lig        -0.0376
     19 C5         31.1942   13.4914   10.9342 C.ar    1  lig         0.0076
     20 C6         29.9224   12.9363   10.4298 C.ar    1  lig         0.0501
     21 C7         32.2430   12.5395   14.4425 C.ar    1  lig        -0.0611
     22 C8         31.1283   11.7355   14.7331 C.ar    1  lig        -0.0598
     23 C9         32.3703   13.1857   13.2050 C.ar    1  lig        -0.0520
     24 C10        30.0953   11.5253   13.8035 C.ar    1  lig        -0.0376
     25 C11        31.3554   12.9775   12.2804 C.ar    1  lig         0.0076
     26 C12        30.1672   12.1371   12.5508 C.ar    1  lig         0.0501
     27 C13        24.8216   12.0059   10.5463 C.2     1  lig         0.3561
     28 C14        25.9866   12.9016   10.9079 C.3     1  lig         0.0508
     29 C15        26.9292   12.2463   11.9360 C.3     1  lig        -0.0247
     30 C16        28.0912   11.4708   11.2889 C.3     1  lig         0.0244
     31 N1         29.3867   12.1554   11.4191 N.pl3   1  lig        -0.3398
     32 O1         23.6185   12.5200   10.3106 O.co2   1  lig        -0.2464
     33 O2         24.9564   10.7934   10.4676 O.co2   1  lig        -0.2464
@<TRIPOS>BOND
     1    27    33    1
     2    27    32    1
     3    27    28    1
     4    28    29    1
     5     9    28    1
     6    10    28    1
     7    29    30    1
     8    11    29    1
     9    12    29    1
    10    30    31    1
    11    13    30    1
    12    14    30    1
    13    26    31    1
    14    20    31    1
    15    24    26   ar
    16    25    26   ar
    17    22    24   ar
    18     8    24    1
    19    23    25   ar
    20    19    25    1
    21    21    23   ar
    22     7    23    1
    23    21    22   ar
    24     5    21    1
    25     6    22    1
    26    19    20   ar
    27    17    19   ar
    28    18    20   ar
    29    16    18   ar
    30     4    18    1
    31    15    17   ar
    32     3    17    1
    33    15    16   ar
    34     1    15    1
    35     2    16    1
@<TRIPOS>SUBSTRUCTURE
     1 lig         1 TEMP              0 ****  ****    0 ROOT


########## Name:		ligand
########## HA_RMSDs:		15.3902
########## HA_RMSDh:		14.9177
########## HA_RMSDm:		8.5591
########## Cluster Size:	1
##########    Grid Score:          -11.377290
##########      Grid_vdw:          -11.419183
##########       Grid_es:            0.041893
##########    Int_energy:            1.828851

@<TRIPOS>MOLECULE
ligand
 33 35 1 0 0
SMALL
No Charge or Current Charge


@<TRIPOS>ATOM
      1 H1         21.5314   10.8210    8.2230 H       1  lig         0.0618
      2 H2         22.9482    9.4680    6.7456 H       1  lig         0.0618
      3 H3         22.4849   11.9791   10.2141 H       1  lig         0.0624
      4 H4         25.3683    9.1591    7.1595 H       1  lig         0.0638
      5 H5         25.8470   13.5122   13.6711 H       1  lig         0.0618
      6 H6         28.0960   12.5672   13.3604 H       1  lig         0.0618
      7 H7         23.9994   12.9097   12.1120 H       1  lig         0.0624
      8 H8         28.6925   11.1881   11.4056 H       1  lig         0.0638
      9 H9         28.8889    7.5025    7.5638 H       1  lig         0.0379
     10 H10        29.9033    7.8544    8.9358 H       1  lig         0.0379
     11 H11        27.7212    8.0698   10.3368 H       1  lig         0.0288
     12 H12        26.8319    7.7697    8.8600 H       1  lig         0.0288
     13 H13        27.7443    9.8168    7.8129 H       1  lig         0.0492
     14 H14        28.6921   10.1476    9.2612 H       1  lig         0.0492
     15 C1         22.5892   10.7199    8.4488 C.ar    1  lig        -0.0611
     16 C2         23.4016    9.9422    7.6111 C.ar    1  lig        -0.0598
     17 C3         23.1160   11.3730    9.5695 C.ar    1  lig        -0.0520
     18 C4         24.7717    9.7649    7.8361 C.ar    1  lig        -0.0376
     19 C5         24.4796   11.1988    9.8073 C.ar    1  lig         0.0076
     20 C6         25.3586   10.3820    8.9469 C.ar    1  lig         0.0501
     21 C7         26.0558   12.8966   12.7985 C.ar    1  lig        -0.0611
     22 C8         27.3589   12.4145   12.5913 C.ar    1  lig        -0.0598
     23 C9         25.0068   12.5499   11.9356 C.ar    1  lig        -0.0520
     24 C10        27.6832   11.5769   11.5103 C.ar    1  lig        -0.0376
     25 C11        25.3222   11.7269   10.8625 C.ar    1  lig         0.0076
     26 C12        26.6829   11.2006   10.6122 C.ar    1  lig         0.0501
     27 C13        28.9046    5.9566    9.0019 C.2     1  lig         0.3561
     28 C14        28.9423    7.4281    8.6506 C.3     1  lig         0.0508
     29 C15        27.7547    8.2026    9.2546 C.3     1  lig        -0.0247
     30 C16        27.7612    9.7008    8.8994 C.3     1  lig         0.0244
     31 N1         26.6225   10.4355    9.4715 N.pl3   1  lig        -0.3398
     32 O1         28.2679    5.0891    8.2213 O.co2   1  lig        -0.2464
     33 O2         29.4514    5.5324   10.0097 O.co2   1  lig        -0.2464
@<TRIPOS>BOND
     1    27    33    1
     2    27    32    1
     3    27    28    1
     4    28    29    1
     5     9    28    1
     6    10    28    1
     7    29    30    1
     8    11    29    1
     9    12    29    1
    10    30    31    1
    11    13    30    1
    12    14    30    1
    13    26    31    1
    14    20    31    1
    15    24    26   ar
    16    25    26   ar
    17    22    24   ar
    18     8    24    1
    19    23    25   ar
    20    19    25    1
    21    21    23   ar
    22     7    23    1
    23    21    22   ar
    24     5    21    1
    25     6    22    1
    26    19    20   ar
    27    17    19   ar
    28    18    20   ar
    29    16    18   ar
    30     4    18    1
    31    15    17   ar
    32     3    17    1
    33    15    16   ar
    34     1    15    1
    35     2    16    1
@<TRIPOS>SUBSTRUCTURE
     1 lig         1 TEMP              0 ****  ****    0 ROOT


########## Name:		ligand
########## HA_RMSDs:		16.5072
########## HA_RMSDh:		16.4467
########## HA_RMSDm:		12.5694
########## Cluster Size:	1
##########    Grid Score:          -11.265098
##########      Grid_vdw:          -11.501705
##########       Grid_es:            0.236608
##########    Int_energy:            5.525019

@<TRIPOS>MOLECULE
ligand
 33 35 1 0 0
SMALL
No Charge or Current Charge


@<TRIPOS>ATOM
      1 H1         10.5223    8.1419    6.3988 H       1  lig         0.0618
      2 H2         12.7549    8.9784    5.8191 H       1  lig         0.0618
      3 H3          8.5756    9.6887    6.5807 H       1  lig         0.0624
      4 H4         13.1994   11.3788    5.4140 H       1  lig         0.0638
      5 H5          5.8891   13.9767    6.5933 H       1  lig         0.0618
      6 H6          7.2358   15.9966    6.2007 H       1  lig         0.0618
      7 H7          6.9690   11.7321    6.6491 H       1  lig         0.0624
      8 H8          9.6312   15.8977    5.6254 H       1  lig         0.0638
      9 H9         10.9823   13.3668    2.9443 H       1  lig         0.0379
     10 H10        11.6311   14.5585    1.8516 H       1  lig         0.0379
     11 H11        11.1731   15.6547    4.0379 H       1  lig         0.0288
     12 H12        12.9075   15.5484    3.8320 H       1  lig         0.0288
     13 H13        12.2654   14.9201    6.1319 H       1  lig         0.0492
     14 H14        13.0731   13.6012    5.2870 H       1  lig         0.0492
     15 C1         10.6626    9.2056    6.2284 C.ar    1  lig        -0.0611
     16 C2         11.9382    9.6893    5.9035 C.ar    1  lig        -0.0598
     17 C3          9.5640   10.0670    6.3336 C.ar    1  lig        -0.0520
     18 C4         12.1976   11.0448    5.6697 C.ar    1  lig        -0.0376
     19 C5          9.8117   11.4214    6.1084 C.ar    1  lig         0.0076
     20 C6         11.1440   11.9606    5.7705 C.ar    1  lig         0.0501
     21 C7          6.9470   13.8803    6.3574 C.ar    1  lig        -0.0611
     22 C8          7.6963   15.0330    6.0686 C.ar    1  lig        -0.0598
     23 C9          7.5492   12.6154    6.4067 C.ar    1  lig        -0.0520
     24 C10         9.0753   14.9810    5.8024 C.ar    1  lig        -0.0376
     25 C11         8.9106   12.5570    6.1391 C.ar    1  lig         0.0076
     26 C12         9.7317   13.7493    5.8307 C.ar    1  lig         0.0501
     27 C13        13.0462   13.1172    2.5752 C.2     1  lig         0.3561
     28 C14        11.8430   14.0139    2.7709 C.3     1  lig         0.0508
     29 C15        12.0049   14.9510    3.9836 C.3     1  lig        -0.0247
     30 C16        12.1569   14.1986    5.3183 C.3     1  lig         0.0244
     31 N1         11.0188   13.3158    5.6173 N.pl3   1  lig        -0.3398
     32 O1         12.9066   11.7961    2.5261 O.co2   1  lig        -0.2464
     33 O2         14.1710   13.5830    2.4633 O.co2   1  lig        -0.2464
@<TRIPOS>BOND
     1    27    33    1
     2    27    32    1
     3    27    28    1
     4    28    29    1
     5     9    28    1
     6    10    28    1
     7    29    30    1
     8    11    29    1
     9    12    29    1
    10    30    31    1
    11    13    30    1
    12    14    30    1
    13    26    31    1
    14    20    31    1
    15    24    26   ar
    16    25    26   ar
    17    22    24   ar
    18     8    24    1
    19    23    25   ar
    20    19    25    1
    21    21    23   ar
    22     7    23    1
    23    21    22   ar
    24     5    21    1
    25     6    22    1
    26    19    20   ar
    27    17    19   ar
    28    18    20   ar
    29    16    18   ar
    30     4    18    1
    31    15    17   ar
    32     3    17    1
    33    15    16   ar
    34     1    15    1
    35     2    16    1
@<TRIPOS>SUBSTRUCTURE
     1 lig         1 TEMP              0 ****  ****    0 ROOT


########## Name:		ligand
########## HA_RMSDs:		15.3557
########## HA_RMSDh:		15.3557
########## HA_RMSDm:		13.4822
########## Cluster Size:	1
##########    Grid Score:          -10.570249
##########      Grid_vdw:          -11.234287
##########       Grid_es:            0.664039
##########    Int_energy:            3.027536

@<TRIPOS>MOLECULE
ligand
 33 35 1 0 0
SMALL
No Charge or Current Charge


@<TRIPOS>ATOM
      1 H1         29.2910   31.0377   15.6168 H       1  lig         0.0618
      2 H2         28.2724   31.9073   17.6727 H       1  lig         0.0618
      3 H3         27.8850   30.3321   13.6828 H       1  lig         0.0624
      4 H4         25.8212   32.1048   17.9483 H       1  lig         0.0638
      5 H5         23.7817   29.3419   10.8923 H       1  lig         0.0618
      6 H6         21.6585   29.7330   12.0700 H       1  lig         0.0618
      7 H7         25.9547   29.7408   12.0439 H       1  lig         0.0624
      8 H8         21.5597   30.7358   14.3203 H       1  lig         0.0638
      9 H9         24.1871   34.0329   17.0232 H       1  lig         0.0379
     10 H10        22.9801   35.1272   16.4060 H       1  lig         0.0379
     11 H11        22.1934   33.1132   15.4203 H       1  lig         0.0288
     12 H12        21.3779   32.9903   16.9636 H       1  lig         0.0288
     13 H13        22.3248   30.8928   16.9060 H       1  lig         0.0492
     14 H14        23.5858   31.7728   17.7667 H       1  lig         0.0492
     15 C1         28.2089   31.1062   15.6850 C.ar    1  lig        -0.0611
     16 C2         27.6219   31.5961   16.8605 C.ar    1  lig        -0.0598
     17 C3         27.4272   30.7068   14.5944 C.ar    1  lig        -0.0520
     18 C4         26.2367   31.7142   17.0235 C.ar    1  lig        -0.0376
     19 C5         26.0446   30.8144   14.7474 C.ar    1  lig         0.0076
     20 C6         25.3979   31.3209   15.9743 C.ar    1  lig         0.0501
     21 C7         23.7923   29.7731   11.8913 C.ar    1  lig        -0.0611
     22 C8         22.5749   30.0561   12.5326 C.ar    1  lig        -0.0598
     23 C9         25.0192   29.9793   12.5373 C.ar    1  lig        -0.0520
     24 C10        22.5200   30.5694   13.8398 C.ar    1  lig        -0.0376
     25 C11        24.9716   30.4914   13.8272 C.ar    1  lig         0.0076
     26 C12        23.7087   30.8020   14.5340 C.ar    1  lig         0.0501
     27 C13        22.7393   34.5690   18.4637 C.2     1  lig         0.3561
     28 C14        23.1179   34.2478   17.0341 C.3     1  lig         0.0508
     29 C15        22.3643   33.0171   16.4934 C.3     1  lig        -0.0247
     30 C16        23.0708   31.6851   16.8054 C.3     1  lig         0.0244
     31 N1         24.0434   31.2913   15.7744 N.pl3   1  lig        -0.3398
     32 O1         23.3157   33.9309   19.4775 O.co2   1  lig        -0.2464
     33 O2         21.8947   35.4149   18.7198 O.co2   1  lig        -0.2464
@<TRIPOS>BOND
     1    27    33    1
     2    27    32    1
     3    27    28    1
     4    28    29    1
     5     9    28    1
     6    10    28    1
     7    29    30    1
     8    11    29    1
     9    12    29    1
    10    30    31    1
    11    13    30    1
    12    14    30    1
    13    26    31    1
    14    20    31    1
    15    24    26   ar
    16    25    26   ar
    17    22    24   ar
    18     8    24    1
    19    23    25   ar
    20    19    25    1
    21    21    23   ar
    22     7    23    1
    23    21    22   ar
    24     5    21    1
    25     6    22    1
    26    19    20   ar
    27    17    19   ar
    28    18    20   ar
    29    16    18   ar
    30     4    18    1
    31    15    17   ar
    32     3    17    1
    33    15    16   ar
    34     1    15    1
    35     2    16    1
@<TRIPOS>SUBSTRUCTURE
     1 lig         1 TEMP              0 ****  ****    0 ROOT


########## Name:		ligand
########## HA_RMSDs:		16.3016
########## HA_RMSDh:		16.2903
########## HA_RMSDm:		10.6876
########## Cluster Size:	1
##########    Grid Score:          -10.434527
##########      Grid_vdw:          -10.271401
##########       Grid_es:           -0.163126
##########    Int_energy:           13.359617

@<TRIPOS>MOLECULE
ligand
 33 35 1 0 0
SMALL
No Charge or Current Charge


@<TRIPOS>ATOM
      1 H1         16.2056   25.1157    4.2309 H       1  lig         0.0618
      2 H2         16.7288   23.0487    5.4450 H       1  lig         0.0618
      3 H3         13.9243   25.5272    3.3137 H       1  lig         0.0624
      4 H4         15.0490   21.2664    5.7992 H       1  lig         0.0638
      5 H5          9.0669   24.7652    2.1177 H       1  lig         0.0618
      6 H6          8.2126   22.5568    2.7816 H       1  lig         0.0618
      7 H7         11.4336   25.3926    2.5786 H       1  lig         0.0624
      8 H8          9.5480   20.9675    4.1119 H       1  lig         0.0638
      9 H9         11.8910   18.4419    2.4423 H       1  lig         0.0379
     10 H10        11.1498   19.9446    2.9196 H       1  lig         0.0379
     11 H11        13.6855   18.9583    4.3437 H       1  lig         0.0288
     12 H12        12.1481   18.2074    4.7102 H       1  lig         0.0288
     13 H13        12.9284   20.2014    6.2055 H       1  lig         0.0492
     14 H14        11.2384   20.0872    5.7193 H       1  lig         0.0492
     15 C1         15.4302   24.3660    4.3608 C.ar    1  lig        -0.0611
     16 C2         15.7264   23.1800    5.0481 C.ar    1  lig        -0.0598
     17 C3         14.1522   24.6050    3.8416 C.ar    1  lig        -0.0520
     18 C4         14.7815   22.1684    5.2557 C.ar    1  lig        -0.0376
     19 C5         13.2035   23.6010    4.0372 C.ar    1  lig         0.0076
     20 C6         13.4872   22.3402    4.7514 C.ar    1  lig         0.0501
     21 C7          9.7017   24.0934    2.6919 C.ar    1  lig        -0.0611
     22 C8          9.1860   22.8608    3.1255 C.ar    1  lig        -0.0598
     23 C9         11.0364   24.4479    2.9327 C.ar    1  lig        -0.0520
     24 C10         9.9680   21.9292    3.8298 C.ar    1  lig        -0.0376
     25 C11        11.8126   23.5338    3.6329 C.ar    1  lig         0.0076
     26 C12        11.3037   22.2267    4.1057 C.ar    1  lig         0.0501
     27 C13        13.1131   20.1237    2.0729 C.2     1  lig         0.3561
     28 C14        12.0929   19.3994    2.9241 C.3     1  lig         0.0508
     29 C15        12.6085   19.1315    4.3514 C.3     1  lig        -0.0247
     30 C16        12.2540   20.2513    5.3469 C.3     1  lig         0.0244
     31 N1         12.3372   21.5966    4.7575 N.pl3   1  lig        -0.3398
     32 O1         12.9535   20.2185    0.7565 O.co2   1  lig        -0.2464
     33 O2         14.1067   20.6323    2.5716 O.co2   1  lig        -0.2464
@<TRIPOS>BOND
     1    27    33    1
     2    27    32    1
     3    27    28    1
     4    28    29    1
     5     9    28    1
     6    10    28    1
     7    29    30    1
     8    11    29    1
     9    12    29    1
    10    30    31    1
    11    13    30    1
    12    14    30    1
    13    26    31    1
    14    20    31    1
    15    24    26   ar
    16    25    26   ar
    17    22    24   ar
    18     8    24    1
    19    23    25   ar
    20    19    25    1
    21    21    23   ar
    22     7    23    1
    23    21    22   ar
    24     5    21    1
    25     6    22    1
    26    19    20   ar
    27    17    19   ar
    28    18    20   ar
    29    16    18   ar
    30     4    18    1
    31    15    17   ar
    32     3    17    1
    33    15    16   ar
    34     1    15    1
    35     2    16    1
@<TRIPOS>SUBSTRUCTURE
     1 lig         1 TEMP              0 ****  ****    0 ROOT


########## Name:		ligand
########## HA_RMSDs:		14.8325
########## HA_RMSDh:		14.4628
########## HA_RMSDm:		10.6069
########## Cluster Size:	1
##########    Grid Score:          -10.403537
##########      Grid_vdw:           -9.761315
##########       Grid_es:           -0.642222
##########    Int_energy:            5.519105

@<TRIPOS>MOLECULE
ligand
 33 35 1 0 0
SMALL
No Charge or Current Charge


@<TRIPOS>ATOM
      1 H1         23.5331   15.1249    5.1119 H       1  lig         0.0618
      2 H2         22.1793   13.7025    6.5832 H       1  lig         0.0618
      3 H3         25.9923   14.7791    4.8942 H       1  lig         0.0624
      4 H4         23.1716   11.8846    7.9376 H       1  lig         0.0638
      5 H5         30.6123   12.8546    5.6405 H       1  lig         0.0618
      6 H6         30.6877   11.0755    7.3368 H       1  lig         0.0618
      7 H7         28.4594   13.9808    5.0891 H       1  lig         0.0624
      8 H8         28.6531   10.1695    8.3942 H       1  lig         0.0638
      9 H9         25.4951   11.3292   12.1265 H       1  lig         0.0379
     10 H10        26.7893   10.5659   11.2446 H       1  lig         0.0379
     11 H11        24.4320   11.9090    9.7870 H       1  lig         0.0288
     12 H12        24.2656   10.3011   10.4570 H       1  lig         0.0288
     13 H13        24.9153    9.6969    8.3405 H       1  lig         0.0492
     14 H14        26.4990    9.7922    9.1075 H       1  lig         0.0492
     15 C1         24.0185   14.3386    5.6832 C.ar    1  lig        -0.0611
     16 C2         23.2500   13.5275    6.5306 C.ar    1  lig        -0.0598
     17 C3         25.4001   14.1522    5.5555 C.ar    1  lig        -0.0520
     18 C4         23.8026   12.4952    7.2975 C.ar    1  lig        -0.0376
     19 C5         25.9632   13.1298    6.3197 C.ar    1  lig         0.0076
     20 C6         25.1811   12.2638    7.2243 C.ar    1  lig         0.0501
     21 C7         29.6866   12.4995    6.0891 C.ar    1  lig        -0.0611
     22 C8         29.7292   11.4378    7.0080 C.ar    1  lig        -0.0598
     23 C9         28.4825   13.1495    5.7847 C.ar    1  lig        -0.0520
     24 C10        28.5761   10.9640    7.6570 C.ar    1  lig        -0.0376
     25 C11        27.3388   12.6823    6.4188 C.ar    1  lig         0.0076
     26 C12        27.3451   11.5666    7.3916 C.ar    1  lig         0.0501
     27 C13        26.6449   12.6920   10.9955 C.2     1  lig         0.3561
     28 C14        26.0141   11.3272   11.1672 C.3     1  lig         0.0508
     29 C15        24.9924   11.0129   10.0570 C.3     1  lig        -0.0247
     30 C16        25.6288   10.3822    8.8048 C.3     1  lig         0.0244
     31 N1         26.0479   11.3773    7.8058 N.pl3   1  lig        -0.3398
     32 O1         26.0970   13.7673   11.5529 O.co2   1  lig        -0.2464
     33 O2         27.6656   12.8393   10.3389 O.co2   1  lig        -0.2464
@<TRIPOS>BOND
     1    27    33    1
     2    27    32    1
     3    27    28    1
     4    28    29    1
     5     9    28    1
     6    10    28    1
     7    29    30    1
     8    11    29    1
     9    12    29    1
    10    30    31    1
    11    13    30    1
    12    14    30    1
    13    26    31    1
    14    20    31    1
    15    24    26   ar
    16    25    26   ar
    17    22    24   ar
    18     8    24    1
    19    23    25   ar
    20    19    25    1
    21    21    23   ar
    22     7    23    1
    23    21    22   ar
    24     5    21    1
    25     6    22    1
    26    19    20   ar
    27    17    19   ar
    28    18    20   ar
    29    16    18   ar
    30     4    18    1
    31    15    17   ar
    32     3    17    1
    33    15    16   ar
    34     1    15    1
    35     2    16    1
@<TRIPOS>SUBSTRUCTURE
     1 lig         1 TEMP              0 ****  ****    0 ROOT


########## Name:		ligand
########## HA_RMSDs:		15.2058
########## HA_RMSDh:		14.8810
########## HA_RMSDm:		9.7055
########## Cluster Size:	1
##########    Grid Score:          -10.027034
##########      Grid_vdw:           -9.822498
##########       Grid_es:           -0.204535
##########    Int_energy:            3.462680

@<TRIPOS>MOLECULE
ligand
 33 35 1 0 0
SMALL
No Charge or Current Charge


@<TRIPOS>ATOM
      1 H1         24.4930   15.6675    8.3851 H       1  lig         0.0618
      2 H2         23.8472   13.3857    9.0151 H       1  lig         0.0618
      3 H3         26.8431   16.2127    7.7567 H       1  lig         0.0624
      4 H4         25.4783   11.5262    9.0874 H       1  lig         0.0638
      5 H5         31.7912   15.6285    6.8740 H       1  lig         0.0618
      6 H6         32.6277   13.3659    7.3523 H       1  lig         0.0618
      7 H7         29.3905   16.1881    7.2353 H       1  lig         0.0624
      8 H8         31.1326   11.5085    7.9798 H       1  lig         0.0638
      9 H9         27.1752   10.8671   10.9959 H       1  lig         0.0379
     10 H10        28.0073    9.6283   11.8950 H       1  lig         0.0379
     11 H11        29.4721    9.3192   10.0923 H       1  lig         0.0288
     12 H12        29.8960   11.0160   10.1497 H       1  lig         0.0288
     13 H13        27.2953   10.2178    8.8270 H       1  lig         0.0492
     14 H14        28.8196   10.0393    7.9608 H       1  lig         0.0492
     15 C1         25.2483   14.8868    8.3981 C.ar    1  lig        -0.0611
     16 C2         24.8854   13.5826    8.7641 C.ar    1  lig        -0.0598
     17 C3         26.5657   15.2021    8.0447 C.ar    1  lig        -0.0520
     18 C4         25.8009   12.5245    8.8044 C.ar    1  lig        -0.0376
     19 C5         27.4885   14.1566    8.0869 C.ar    1  lig         0.0076
     20 C6         27.1375   12.7756    8.4734 C.ar    1  lig         0.0501
     21 C7         31.0918   14.8463    7.1623 C.ar    1  lig        -0.0611
     22 C8         31.5659   13.5403    7.3694 C.ar    1  lig        -0.0598
     23 C9         29.7461   15.1739    7.3785 C.ar    1  lig        -0.0520
     24 C10        30.7228   12.4965    7.7879 C.ar    1  lig        -0.0376
     25 C11        28.9070   14.1455    7.7868 C.ar    1  lig         0.0076
     26 C12        29.3704   12.7583    8.0146 C.ar    1  lig         0.0501
     27 C13        28.7050   11.6283   12.2363 C.2     1  lig         0.3561
     28 C14        28.1629   10.5456   11.3285 C.3     1  lig         0.0508
     29 C15        29.0509   10.3255   10.0883 C.3     1  lig        -0.0247
     30 C16        28.3193   10.5939    8.7604 C.3     1  lig         0.0244
     31 N1         28.2772   12.0198    8.4014 N.pl3   1  lig        -0.3398
     32 O1         28.4359   12.9087   12.0005 O.co2   1  lig        -0.2464
     33 O2         29.4044   11.3539   13.2007 O.co2   1  lig        -0.2464
@<TRIPOS>BOND
     1    27    33    1
     2    27    32    1
     3    27    28    1
     4    28    29    1
     5     9    28    1
     6    10    28    1
     7    29    30    1
     8    11    29    1
     9    12    29    1
    10    30    31    1
    11    13    30    1
    12    14    30    1
    13    26    31    1
    14    20    31    1
    15    24    26   ar
    16    25    26   ar
    17    22    24   ar
    18     8    24    1
    19    23    25   ar
    20    19    25    1
    21    21    23   ar
    22     7    23    1
    23    21    22   ar
    24     5    21    1
    25     6    22    1
    26    19    20   ar
    27    17    19   ar
    28    18    20   ar
    29    16    18   ar
    30     4    18    1
    31    15    17   ar
    32     3    17    1
    33    15    16   ar
    34     1    15    1
    35     2    16    1
@<TRIPOS>SUBSTRUCTURE
     1 lig         1 TEMP              0 ****  ****    0 ROOT


########## Name:		ligand
########## HA_RMSDs:		14.7909
########## HA_RMSDh:		14.7633
########## HA_RMSDm:		13.0172
########## Cluster Size:	1
##########    Grid Score:           -9.917919
##########      Grid_vdw:           -9.722971
##########       Grid_es:           -0.194948
##########    Int_energy:            4.428078

@<TRIPOS>MOLECULE
ligand
 33 35 1 0 0
SMALL
No Charge or Current Charge


@<TRIPOS>ATOM
      1 H1         18.8839   35.1205   13.3264 H       1  lig         0.0618
      2 H2         18.5812   33.4565   15.1041 H       1  lig         0.0618
      3 H3         18.3680   34.5729   10.9497 H       1  lig         0.0624
      4 H4         17.7824   31.1610   14.6393 H       1  lig         0.0638
      5 H5         16.9833   31.9194    6.8696 H       1  lig         0.0618
      6 H6         16.4471   29.5672    7.3465 H       1  lig         0.0618
      7 H7         17.7057   33.4448    8.7023 H       1  lig         0.0624
      8 H8         16.3726   28.6667    9.6405 H       1  lig         0.0638
      9 H9         19.5779   29.7476   12.7276 H       1  lig         0.0379
     10 H10        19.2682   29.0414   14.2898 H       1  lig         0.0379
     11 H11        17.8769   27.2351   13.1471 H       1  lig         0.0288
     12 H12        18.3438   27.8909   11.5934 H       1  lig         0.0288
     13 H13        16.6270   29.3481   13.6479 H       1  lig         0.0492
     14 H14        16.0619   28.5956   12.1579 H       1  lig         0.0492
     15 C1         18.5278   34.1271   13.0683 C.ar    1  lig        -0.0611
     16 C2         18.3597   33.1706   14.0799 C.ar    1  lig        -0.0598
     17 C3         18.2415   33.8281   11.7309 C.ar    1  lig        -0.0520
     18 C4         17.9054   31.8713   13.8262 C.ar    1  lig        -0.0376
     19 C5         17.7934   32.5339   11.4650 C.ar    1  lig         0.0076
     20 C6         17.6122   31.5044   12.5077 C.ar    1  lig         0.0501
     21 C7         16.9787   31.5669    7.8991 C.ar    1  lig        -0.0611
     22 C8         16.6069   30.2398    8.1712 C.ar    1  lig        -0.0598
     23 C9         17.4017   32.4274    8.9217 C.ar    1  lig        -0.0520
     24 C10        16.6253   29.7101    9.4729 C.ar    1  lig        -0.0376
     25 C11        17.4168   31.9114   10.2108 C.ar    1  lig         0.0076
     26 C12        17.0317   30.5195   10.5353 C.ar    1  lig         0.0501
     27 C13        20.6162   27.9356   13.0394 C.2     1  lig         0.3561
     28 C14        19.3897   28.8004   13.2344 C.3     1  lig         0.0508
     29 C15        18.1240   28.1628   12.6290 C.3     1  lig        -0.0247
     30 C16        16.9101   29.1099   12.6196 C.3     1  lig         0.0244
     31 N1         17.1619   30.3652   11.8952 N.pl3   1  lig        -0.3398
     32 O1         21.3612   28.0524   11.9445 O.co2   1  lig        -0.2464
     33 O2         20.9473   27.1090   13.8770 O.co2   1  lig        -0.2464
@<TRIPOS>BOND
     1    27    33    1
     2    27    32    1
     3    27    28    1
     4    28    29    1
     5     9    28    1
     6    10    28    1
     7    29    30    1
     8    11    29    1
     9    12    29    1
    10    30    31    1
    11    13    30    1
    12    14    30    1
    13    26    31    1
    14    20    31    1
    15    24    26   ar
    16    25    26   ar
    17    22    24   ar
    18     8    24    1
    19    23    25   ar
    20    19    25    1
    21    21    23   ar
    22     7    23    1
    23    21    22   ar
    24     5    21    1
    25     6    22    1
    26    19    20   ar
    27    17    19   ar
    28    18    20   ar
    29    16    18   ar
    30     4    18    1
    31    15    17   ar
    32     3    17    1
    33    15    16   ar
    34     1    15    1
    35     2    16    1
@<TRIPOS>SUBSTRUCTURE
     1 lig         1 TEMP              0 ****  ****    0 ROOT


########## Name:		ligand
########## HA_RMSDs:		14.5265
########## HA_RMSDh:		14.4983
########## HA_RMSDm:		10.5833
########## Cluster Size:	1
##########    Grid Score:           -9.890034
##########      Grid_vdw:          -10.101982
##########       Grid_es:            0.211949
##########    Int_energy:           12.443324

@<TRIPOS>MOLECULE
ligand
 33 35 1 0 0
SMALL
No Charge or Current Charge


@<TRIPOS>ATOM
      1 H1         17.1443    7.9409   20.6320 H       1  lig         0.0618
      2 H2         17.1926    5.8162   21.8583 H       1  lig         0.0618
      3 H3         17.3380    7.9973   18.1472 H       1  lig         0.0624
      4 H4         17.4601    3.6388   20.7134 H       1  lig         0.0638
      5 H5         17.8930    6.3962   13.3792 H       1  lig         0.0618
      6 H6         18.2436    3.9704   13.1779 H       1  lig         0.0618
      7 H7         17.6033    7.4469   15.6197 H       1  lig         0.0624
      8 H8         18.1015    2.4487   15.1125 H       1  lig         0.0638
      9 H9         19.8013    3.5471   19.7094 H       1  lig         0.0379
     10 H10        18.8750    2.4553   20.7019 H       1  lig         0.0379
     11 H11        19.3378    0.6711   18.7925 H       1  lig         0.0288
     12 H12        19.9796    2.0160   17.8753 H       1  lig         0.0288
     13 H13        17.1144    1.8768   18.9085 H       1  lig         0.0492
     14 H14        17.6270    1.5230   17.2600 H       1  lig         0.0492
     15 C1         17.2614    7.0124   20.0803 C.ar    1  lig        -0.0611
     16 C2         17.2964    5.7960   20.7774 C.ar    1  lig        -0.0598
     17 C3         17.3704    7.0535   18.6852 C.ar    1  lig        -0.0520
     18 C4         17.4441    4.5600   20.1374 C.ar    1  lig        -0.0376
     19 C5         17.5240    5.8279   18.0367 C.ar    1  lig         0.0076
     20 C6         17.5700    4.5325   18.7437 C.ar    1  lig         0.0501
     21 C7         17.8350    5.7690   14.2665 C.ar    1  lig        -0.0611
     22 C8         17.9698    4.3768   14.1360 C.ar    1  lig        -0.0598
     23 C9         17.6876    6.3702   15.5243 C.ar    1  lig        -0.0520
     24 C10        17.9511    3.5164   15.2473 C.ar    1  lig        -0.0376
     25 C11        17.6630    5.5248   16.6256 C.ar    1  lig         0.0076
     26 C12        17.8015    4.0544   16.5267 C.ar    1  lig         0.0501
     27 C13        20.9594    1.9797   20.5222 C.2     1  lig         0.3561
     28 C14        19.6576    2.4919   19.9451 C.3     1  lig         0.0508
     29 C15        19.2600    1.7503   18.6540 C.3     1  lig        -0.0247
     30 C16        17.8559    2.1245   18.1449 C.3     1  lig         0.0244
     31 N1         17.7255    3.5493   17.8031 N.pl3   1  lig        -0.3398
     32 O1         21.1842    2.0230   21.8317 O.co2   1  lig        -0.2464
     33 O2         21.8339    1.5208   19.8016 O.co2   1  lig        -0.2464
@<TRIPOS>BOND
     1    27    33    1
     2    27    32    1
     3    27    28    1
     4    28    29    1
     5     9    28    1
     6    10    28    1
     7    29    30    1
     8    11    29    1
     9    12    29    1
    10    30    31    1
    11    13    30    1
    12    14    30    1
    13    26    31    1
    14    20    31    1
    15    24    26   ar
    16    25    26   ar
    17    22    24   ar
    18     8    24    1
    19    23    25   ar
    20    19    25    1
    21    21    23   ar
    22     7    23    1
    23    21    22   ar
    24     5    21    1
    25     6    22    1
    26    19    20   ar
    27    17    19   ar
    28    18    20   ar
    29    16    18   ar
    30     4    18    1
    31    15    17   ar
    32     3    17    1
    33    15    16   ar
    34     1    15    1
    35     2    16    1
@<TRIPOS>SUBSTRUCTURE
     1 lig         1 TEMP              0 ****  ****    0 ROOT


########## Name:		ligand
########## HA_RMSDs:		14.6094
########## HA_RMSDh:		14.1700
########## HA_RMSDm:		11.0188
########## Cluster Size:	1
##########    Grid Score:           -9.605625
##########      Grid_vdw:           -9.644794
##########       Grid_es:            0.039170
##########    Int_energy:           16.175631

@<TRIPOS>MOLECULE
ligand
 33 35 1 0 0
SMALL
No Charge or Current Charge


@<TRIPOS>ATOM
      1 H1         30.0209   13.3804    8.1920 H       1  lig         0.0618
      2 H2         28.1250   12.2195    9.2306 H       1  lig         0.0618
      3 H3         31.9589   14.1551    9.5553 H       1  lig         0.0624
      4 H4         28.0194   11.7821   11.6639 H       1  lig         0.0638
      5 H5         34.8840   15.0646   13.5829 H       1  lig         0.0618
      6 H6         33.8811   14.3716   15.7188 H       1  lig         0.0618
      7 H7         33.6468   14.7407   11.4448 H       1  lig         0.0624
      8 H8         31.7493   13.1390   15.8405 H       1  lig         0.0638
      9 H9         29.6470   14.7144   14.9059 H       1  lig         0.0379
     10 H10        28.1545   15.1299   15.7029 H       1  lig         0.0379
     11 H11        27.5681   13.3839   14.0934 H       1  lig         0.0288
     12 H12        27.6246   12.5748   15.6439 H       1  lig         0.0288
     13 H13        28.7672   11.2272   13.9196 H       1  lig         0.0492
     14 H14        29.8561   11.6897   15.2257 H       1  lig         0.0492
     15 C1         30.0256   13.2113    9.2651 C.ar    1  lig        -0.0611
     16 C2         28.9411   12.5543    9.8642 C.ar    1  lig        -0.0598
     17 C3         31.1176   13.6506   10.0231 C.ar    1  lig        -0.0520
     18 C4         28.8749   12.3001   11.2390 C.ar    1  lig        -0.0376
     19 C5         31.0600   13.4080   11.3957 C.ar    1  lig         0.0076
     20 C6         29.9299   12.7241   12.0553 C.ar    1  lig         0.0501
     21 C7         33.9329   14.5360   13.5841 C.ar    1  lig        -0.0611
     22 C8         33.3974   14.0839   14.8015 C.ar    1  lig        -0.0598
     23 C9         33.2367   14.3724   12.3784 C.ar    1  lig        -0.0520
     24 C10        32.1520   13.4367   14.8761 C.ar    1  lig        -0.0376
     25 C11        32.0080   13.7287   12.4450 C.ar    1  lig         0.0076
     26 C12        31.4128   13.2387   13.7086 C.ar    1  lig         0.0501
     27 C13        29.5329   13.9869   16.8849 C.2     1  lig         0.3561
     28 C14        28.8720   14.3218   15.5653 C.3     1  lig         0.0508
     29 C15        28.2406   13.0843   14.8984 C.3     1  lig        -0.0247
     30 C16        29.2811   12.0755   14.3785 C.3     1  lig         0.0244
     31 N1         30.2078   12.6560   13.3946 N.pl3   1  lig        -0.3398
     32 O1         29.5971   14.8888   17.8594 O.co2   1  lig        -0.2464
     33 O2         30.0260   12.8861   17.0842 O.co2   1  lig        -0.2464
@<TRIPOS>BOND
     1    27    33    1
     2    27    32    1
     3    27    28    1
     4    28    29    1
     5     9    28    1
     6    10    28    1
     7    29    30    1
     8    11    29    1
     9    12    29    1
    10    30    31    1
    11    13    30    1
    12    14    30    1
    13    26    31    1
    14    20    31    1
    15    24    26   ar
    16    25    26   ar
    17    22    24   ar
    18     8    24    1
    19    23    25   ar
    20    19    25    1
    21    21    23   ar
    22     7    23    1
    23    21    22   ar
    24     5    21    1
    25     6    22    1
    26    19    20   ar
    27    17    19   ar
    28    18    20   ar
    29    16    18   ar
    30     4    18    1
    31    15    17   ar
    32     3    17    1
    33    15    16   ar
    34     1    15    1
    35     2    16    1
@<TRIPOS>SUBSTRUCTURE
     1 lig         1 TEMP              0 ****  ****    0 ROOT


########## Name:		ligand
########## HA_RMSDs:		15.8187
########## HA_RMSDh:		15.3675
########## HA_RMSDm:		9.7744
########## Cluster Size:	1
##########    Grid Score:           -9.483267
##########      Grid_vdw:           -9.414565
##########       Grid_es:           -0.068702
##########    Int_energy:            4.322594

@<TRIPOS>MOLECULE
ligand
 33 35 1 0 0
SMALL
No Charge or Current Charge


@<TRIPOS>ATOM
      1 H1          8.4673   18.6968    4.1440 H       1  lig         0.0618
      2 H2          8.0043   20.9322    3.2445 H       1  lig         0.0618
      3 H3         10.5749   18.2212    5.3876 H       1  lig         0.0624
      4 H4          9.5965   22.8100    3.4949 H       1  lig         0.0638
      5 H5         15.1248   18.9263    7.4867 H       1  lig         0.0618
      6 H6         16.0542   21.1731    7.1180 H       1  lig         0.0618
      7 H7         12.9003   18.3119    6.5480 H       1  lig         0.0624
      8 H8         14.7706   22.9719    6.0245 H       1  lig         0.0638
      9 H9         14.6783   23.0622    3.7246 H       1  lig         0.0379
     10 H10        14.7295   23.5322    2.0477 H       1  lig         0.0379
     11 H11        12.3709   23.2489    2.3942 H       1  lig         0.0288
     12 H12        12.5605   24.9584    2.7158 H       1  lig         0.0288
     13 H13        11.2712   24.2757    4.5415 H       1  lig         0.0492
     14 H14        12.9034   24.3226    5.2044 H       1  lig         0.0492
     15 C1          9.1994   19.4872    4.2841 C.ar    1  lig        -0.0611
     16 C2          8.9423   20.7647    3.7659 C.ar    1  lig        -0.0598
     17 C3         10.3806   19.2109    4.9829 C.ar    1  lig        -0.0520
     18 C4          9.8357   21.8330    3.9058 C.ar    1  lig        -0.0376
     19 C5         11.2817   20.2667    5.1236 C.ar    1  lig         0.0076
     20 C6         11.0412   21.6200    4.5845 C.ar    1  lig         0.0501
     21 C7         14.5232   19.6815    6.9850 C.ar    1  lig        -0.0611
     22 C8         15.0333   20.9819    6.8364 C.ar    1  lig        -0.0598
     23 C9         13.2797   19.3225    6.4464 C.ar    1  lig        -0.0520
     24 C10        14.3263   21.9893    6.1576 C.ar    1  lig        -0.0376
     25 C11        12.5740   20.3151    5.7793 C.ar    1  lig         0.0076
     26 C12        13.0791   21.6954    5.6036 C.ar    1  lig         0.0501
     27 C13        15.0583   25.1212    3.4515 C.2     1  lig         0.3561
     28 C14        14.3691   23.8423    3.0278 C.3     1  lig         0.0508
     29 C15        12.8335   23.9634    3.0765 C.3     1  lig        -0.0247
     30 C16        12.2547   23.8014    4.4940 C.3     1  lig         0.0244
     31 N1         12.1226   22.3958    4.9074 N.pl3   1  lig        -0.3398
     32 O1         15.5422   25.2551    4.6824 O.co2   1  lig        -0.2464
     33 O2         15.1817   26.0597    2.6779 O.co2   1  lig        -0.2464
@<TRIPOS>BOND
     1    27    33    1
     2    27    32    1
     3    27    28    1
     4    28    29    1
     5     9    28    1
     6    10    28    1
     7    29    30    1
     8    11    29    1
     9    12    29    1
    10    30    31    1
    11    13    30    1
    12    14    30    1
    13    26    31    1
    14    20    31    1
    15    24    26   ar
    16    25    26   ar
    17    22    24   ar
    18     8    24    1
    19    23    25   ar
    20    19    25    1
    21    21    23   ar
    22     7    23    1
    23    21    22   ar
    24     5    21    1
    25     6    22    1
    26    19    20   ar
    27    17    19   ar
    28    18    20   ar
    29    16    18   ar
    30     4    18    1
    31    15    17   ar
    32     3    17    1
    33    15    16   ar
    34     1    15    1
    35     2    16    1
@<TRIPOS>SUBSTRUCTURE
     1 lig         1 TEMP              0 ****  ****    0 ROOT


########## Name:		ligand
########## HA_RMSDs:		15.9385
########## HA_RMSDh:		15.9213
########## HA_RMSDm:		11.1499
########## Cluster Size:	1
##########    Grid Score:           -9.473242
##########      Grid_vdw:           -9.633938
##########       Grid_es:            0.160696
##########    Int_energy:           16.801373

@<TRIPOS>MOLECULE
ligand
 33 35 1 0 0
SMALL
No Charge or Current Charge


@<TRIPOS>ATOM
      1 H1         19.5955   24.5718    2.5406 H       1  lig         0.0618
      2 H2         19.7435   22.8079    4.2399 H       1  lig         0.0618
      3 H3         17.3986   25.5617    1.9012 H       1  lig         0.0624
      4 H4         17.7418   21.9049    5.3807 H       1  lig         0.0638
      5 H5         12.4064   26.3752    1.7571 H       1  lig         0.0618
      6 H6         11.1086   24.8592    3.1944 H       1  lig         0.0618
      7 H7         14.8871   26.1803    1.6337 H       1  lig         0.0624
      8 H8         12.1783   23.2547    4.7306 H       1  lig         0.0638
      9 H9         16.1593   20.3422    4.0288 H       1  lig         0.0379
     10 H10        14.9833   19.1508    3.5461 H       1  lig         0.0379
     11 H11        14.2837   19.7882    5.7813 H       1  lig         0.0288
     12 H12        13.2401   20.7297    4.7391 H       1  lig         0.0288
     13 H13        15.6260   21.7138    6.3219 H       1  lig         0.0492
     14 H14        13.9595   22.2857    6.3533 H       1  lig         0.0492
     15 C1         18.6856   24.2126    3.0131 C.ar    1  lig        -0.0611
     16 C2         18.7644   23.1998    3.9800 C.ar    1  lig        -0.0598
     17 C3         17.4562   24.7735    2.6472 C.ar    1  lig        -0.0520
     18 C4         17.6378   22.6857    4.6323 C.ar    1  lig        -0.0376
     19 C5         16.3253   24.2648    3.2866 C.ar    1  lig         0.0076
     20 C6         16.3765   23.1957    4.3037 C.ar    1  lig         0.0501
     21 C7         12.9260   25.6739    2.4069 C.ar    1  lig        -0.0611
     22 C8         12.1818   24.8570    3.2742 C.ar    1  lig        -0.0598
     23 C9         14.3205   25.5601    2.3191 C.ar    1  lig        -0.0520
     24 C10        12.7892   23.8989    4.1040 C.ar    1  lig        -0.0376
     25 C11        14.9269   24.6189    3.1405 C.ar    1  lig         0.0076
     26 C12        14.1758   23.7418    4.0666 C.ar    1  lig         0.0501
     27 C13        14.7777   21.0689    2.6069 C.2     1  lig         0.3561
     28 C14        15.1010   20.2024    3.8048 C.3     1  lig         0.0508
     29 C15        14.2800   20.5959    5.0481 C.3     1  lig        -0.0247
     30 C16        14.7508   21.9101    5.6977 C.3     1  lig         0.0244
     31 N1         15.0936   22.9501    4.7154 N.pl3   1  lig        -0.3398
     32 O1         15.7012   21.3238    1.6853 O.co2   1  lig        -0.2464
     33 O2         13.6666   21.5575    2.4609 O.co2   1  lig        -0.2464
@<TRIPOS>BOND
     1    27    33    1
     2    27    32    1
     3    27    28    1
     4    28    29    1
     5     9    28    1
     6    10    28    1
     7    29    30    1
     8    11    29    1
     9    12    29    1
    10    30    31    1
    11    13    30    1
    12    14    30    1
    13    26    31    1
    14    20    31    1
    15    24    26   ar
    16    25    26   ar
    17    22    24   ar
    18     8    24    1
    19    23    25   ar
    20    19    25    1
    21    21    23   ar
    22     7    23    1
    23    21    22   ar
    24     5    21    1
    25     6    22    1
    26    19    20   ar
    27    17    19   ar
    28    18    20   ar
    29    16    18   ar
    30     4    18    1
    31    15    17   ar
    32     3    17    1
    33    15    16   ar
    34     1    15    1
    35     2    16    1
@<TRIPOS>SUBSTRUCTURE
     1 lig         1 TEMP              0 ****  ****    0 ROOT


########## Name:		ligand
########## HA_RMSDs:		15.2519
########## HA_RMSDh:		15.1182
########## HA_RMSDm:		7.7931
########## Cluster Size:	1
##########    Grid Score:           -9.437297
##########      Grid_vdw:           -9.668162
##########       Grid_es:            0.230865
##########    Int_energy:            1.627365

@<TRIPOS>MOLECULE
ligand
 33 35 1 0 0
SMALL
No Charge or Current Charge


@<TRIPOS>ATOM
      1 H1         23.9761   13.0353   12.6326 H       1  lig         0.0618
      2 H2         26.0783   13.4401   13.8315 H       1  lig         0.0618
      3 H3         23.9214   11.6453   10.5638 H       1  lig         0.0624
      4 H4         28.2400   12.5247   13.0486 H       1  lig         0.0638
      5 H5         25.5232    8.7990    6.6988 H       1  lig         0.0618
      6 H6         27.9619    8.4882    6.6347 H       1  lig         0.0618
      7 H7         24.4733   10.1701    8.4948 H       1  lig         0.0624
      8 H8         29.4462    9.3019    8.4274 H       1  lig         0.0638
      9 H9         32.2722    9.7812   11.5714 H       1  lig         0.0379
     10 H10        31.8866   10.9267   12.8262 H       1  lig         0.0379
     11 H11        29.4959    9.8590   12.8560 H       1  lig         0.0288
     12 H12        30.0175    8.8787   11.5037 H       1  lig         0.0288
     13 H13        30.3609   10.8455   10.0827 H       1  lig         0.0492
     14 H14        29.9834   11.9218   11.4260 H       1  lig         0.0492
     15 C1         24.8974   12.6077   12.2473 C.ar    1  lig        -0.0611
     16 C2         26.1025   12.8419   12.9252 C.ar    1  lig        -0.0598
     17 C3         24.8576   11.8292   11.0844 C.ar    1  lig        -0.0520
     18 C4         27.3288   12.3254   12.4912 C.ar    1  lig        -0.0376
     19 C5         26.0750   11.3138   10.6387 C.ar    1  lig         0.0076
     20 C6         27.3597   11.5478   11.3278 C.ar    1  lig         0.0501
     21 C7         26.1367    9.1908    7.5076 C.ar    1  lig        -0.0611
     22 C8         27.5211    8.9527    7.4997 C.ar    1  lig        -0.0598
     23 C9         25.5397    9.9742    8.5051 C.ar    1  lig        -0.0520
     24 C10        28.3745    9.4704    8.4892 C.ar    1  lig        -0.0376
     25 C11        26.3770   10.4840    9.4887 C.ar    1  lig         0.0076
     26 C12        27.8390   10.2538    9.5131 C.ar    1  lig         0.0501
     27 C13        31.9900    8.8793   13.4596 C.2     1  lig         0.3561
     28 C14        31.6330    9.9398   12.4408 C.3     1  lig         0.0508
     29 C15        30.1617    9.8459   11.9920 C.3     1  lig        -0.0247
     30 C16        29.7596   10.9436   10.9900 C.3     1  lig         0.0244
     31 N1         28.3362   10.8970   10.6218 N.pl3   1  lig        -0.3398
     32 O1         32.4879    7.7086   13.0739 O.co2   1  lig        -0.2464
     33 O2         31.8252    9.0702   14.6559 O.co2   1  lig        -0.2464
@<TRIPOS>BOND
     1    27    33    1
     2    27    32    1
     3    27    28    1
     4    28    29    1
     5     9    28    1
     6    10    28    1
     7    29    30    1
     8    11    29    1
     9    12    29    1
    10    30    31    1
    11    13    30    1
    12    14    30    1
    13    26    31    1
    14    20    31    1
    15    24    26   ar
    16    25    26   ar
    17    22    24   ar
    18     8    24    1
    19    23    25   ar
    20    19    25    1
    21    21    23   ar
    22     7    23    1
    23    21    22   ar
    24     5    21    1
    25     6    22    1
    26    19    20   ar
    27    17    19   ar
    28    18    20   ar
    29    16    18   ar
    30     4    18    1
    31    15    17   ar
    32     3    17    1
    33    15    16   ar
    34     1    15    1
    35     2    16    1
@<TRIPOS>SUBSTRUCTURE
     1 lig         1 TEMP              0 ****  ****    0 ROOT


########## Name:		ligand
########## HA_RMSDs:		15.2054
########## HA_RMSDh:		15.0378
########## HA_RMSDm:		8.4049
########## Cluster Size:	1
##########    Grid Score:           -8.722223
##########      Grid_vdw:           -8.317636
##########       Grid_es:           -0.404587
##########    Int_energy:            3.419802

@<TRIPOS>MOLECULE
ligand
 33 35 1 0 0
SMALL
No Charge or Current Charge


@<TRIPOS>ATOM
      1 H1         23.2021   12.6846   10.7866 H       1  lig         0.0618
      2 H2         24.9845   13.3047   12.3547 H       1  lig         0.0618
      3 H3         23.6740   11.2479    8.8046 H       1  lig         0.0624
      4 H4         27.3272   12.5700   12.0455 H       1  lig         0.0638
      5 H5         26.2405    8.4690    5.4438 H       1  lig         0.0618
      6 H6         28.6611    8.3778    5.8686 H       1  lig         0.0618
      7 H7         24.7454    9.7810    6.9440 H       1  lig         0.0624
      8 H8         29.6885    9.3630    7.8817 H       1  lig         0.0638
      9 H9         29.8996    9.1514   13.0525 H       1  lig         0.0379
     10 H10        28.4972   10.1027   12.6481 H       1  lig         0.0379
     11 H11        29.9218    8.9916   10.2500 H       1  lig         0.0288
     12 H12        30.9584    9.9707   11.2642 H       1  lig         0.0288
     13 H13        30.0510   11.4722    9.6436 H       1  lig         0.0492
     14 H14        29.2630   11.8381   11.1768 H       1  lig         0.0492
     15 C1         24.2139   12.3330   10.6057 C.ar    1  lig        -0.0611
     16 C2         25.2373   12.6904   11.4954 C.ar    1  lig        -0.0598
     17 C3         24.4700   11.5274    9.4897 C.ar    1  lig        -0.0520
     18 C4         26.5641   12.2765   11.3298 C.ar    1  lig        -0.0376
     19 C5         25.7903   11.1136    9.3109 C.ar    1  lig         0.0076
     20 C6         26.8893   11.4782   10.2270 C.ar    1  lig         0.0501
     21 C7         26.6472    8.9330    6.3402 C.ar    1  lig        -0.0611
     22 C8         28.0208    8.8205    6.6117 C.ar    1  lig        -0.0598
     23 C9         25.8013    9.6823    7.1698 C.ar    1  lig        -0.0520
     24 C10        28.6154    9.4357    7.7268 C.ar    1  lig        -0.0376
     25 C11        26.3820   10.2880    8.2762 C.ar    1  lig         0.0076
     26 C12        27.8244   10.1911    8.5942 C.ar    1  lig         0.0501
     27 C13        28.4064    8.0438   12.0513 C.2     1  lig         0.3561
     28 C14        29.1675    9.3343   12.2649 C.3     1  lig         0.0508
     29 C15        29.9148    9.7877   10.9957 C.3     1  lig        -0.0247
     30 C16        29.3507   11.0850   10.3879 C.3     1  lig         0.0244
     31 N1         28.0371   10.9019    9.7516 N.pl3   1  lig        -0.3398
     32 O1         29.0451    6.8786   12.0102 O.co2   1  lig        -0.2464
     33 O2         27.1925    8.0417   11.9068 O.co2   1  lig        -0.2464
@<TRIPOS>BOND
     1    27    33    1
     2    27    32    1
     3    27    28    1
     4    28    29    1
     5     9    28    1
     6    10    28    1
     7    29    30    1
     8    11    29    1
     9    12    29    1
    10    30    31    1
    11    13    30    1
    12    14    30    1
    13    26    31    1
    14    20    31    1
    15    24    26   ar
    16    25    26   ar
    17    22    24   ar
    18     8    24    1
    19    23    25   ar
    20    19    25    1
    21    21    23   ar
    22     7    23    1
    23    21    22   ar
    24     5    21    1
    25     6    22    1
    26    19    20   ar
    27    17    19   ar
    28    18    20   ar
    29    16    18   ar
    30     4    18    1
    31    15    17   ar
    32     3    17    1
    33    15    16   ar
    34     1    15    1
    35     2    16    1
@<TRIPOS>SUBSTRUCTURE
     1 lig         1 TEMP              0 ****  ****    0 ROOT


########## Name:		ligand
########## HA_RMSDs:		15.8380
########## HA_RMSDh:		15.4416
########## HA_RMSDm:		13.3874
########## Cluster Size:	1
##########    Grid Score:           -8.480230
##########      Grid_vdw:           -8.116166
##########       Grid_es:           -0.364064
##########    Int_energy:            3.406204

@<TRIPOS>MOLECULE
ligand
 33 35 1 0 0
SMALL
No Charge or Current Charge


@<TRIPOS>ATOM
      1 H1         30.4666   14.6879    5.1579 H       1  lig         0.0618
      2 H2         28.4218   13.3318    5.1634 H       1  lig         0.0618
      3 H3         32.1336   14.5102    7.0030 H       1  lig         0.0624
      4 H4         27.8931   11.7506    6.9920 H       1  lig         0.0638
      5 H5         34.3057   13.0358   11.3289 H       1  lig         0.0618
      6 H6         32.9465   11.4596   12.6389 H       1  lig         0.0618
      7 H7         33.4629   13.9285    9.1609 H       1  lig         0.0624
      8 H8         30.8301   10.5188   11.7935 H       1  lig         0.0638
      9 H9         27.5645   10.9508   12.2684 H       1  lig         0.0379
     10 H10        28.4910   12.3301   11.7446 H       1  lig         0.0379
     11 H11        27.1413   12.0897    9.4674 H       1  lig         0.0288
     12 H12        26.5721   10.5714   10.1251 H       1  lig         0.0288
     13 H13        28.3916    9.9170    8.7823 H       1  lig         0.0492
     14 H14        29.0255    9.8778   10.4261 H       1  lig         0.0492
     15 C1         30.2839   14.0068    5.9843 C.ar    1  lig        -0.0611
     16 C2         29.1133   13.2346    5.9952 C.ar    1  lig        -0.0598
     17 C3         31.2250   13.9141    7.0166 C.ar    1  lig        -0.0520
     18 C4         28.8082   12.3357    7.0238 C.ar    1  lig        -0.0376
     19 C5         30.9288   13.0255    8.0506 C.ar    1  lig         0.0076
     20 C6         29.7027   12.2040    8.0923 C.ar    1  lig         0.0501
     21 C7         33.3707   12.6610   10.9174 C.ar    1  lig        -0.0611
     22 C8         32.6317   11.7102   11.6408 C.ar    1  lig        -0.0598
     23 C9         32.8967   13.1806    9.7048 C.ar    1  lig        -0.0520
     24 C10        31.3945   11.2217   11.1868 C.ar    1  lig        -0.0376
     25 C11        31.6774   12.6977    9.2483 C.ar    1  lig         0.0076
     26 C12        30.8717   11.6963    9.9825 C.ar    1  lig         0.0501
     27 C13        26.3897   12.6841   11.9959 C.2     1  lig         0.3561
     28 C14        27.5506   11.8030   11.5879 C.3     1  lig         0.0508
     29 C15        27.4059   11.2779   10.1463 C.3     1  lig        -0.0247
     30 C16        28.6592   10.5422    9.6377 C.3     1  lig         0.0244
     31 N1         29.7421   11.4538    9.2373 N.pl3   1  lig        -0.3398
     32 O1         25.9973   12.7444   13.2646 O.co2   1  lig        -0.2464
     33 O2         25.7841   13.3544   11.1722 O.co2   1  lig        -0.2464
@<TRIPOS>BOND
     1    27    33    1
     2    27    32    1
     3    27    28    1
     4    28    29    1
     5     9    28    1
     6    10    28    1
     7    29    30    1
     8    11    29    1
     9    12    29    1
    10    30    31    1
    11    13    30    1
    12    14    30    1
    13    26    31    1
    14    20    31    1
    15    24    26   ar
    16    25    26   ar
    17    22    24   ar
    18     8    24    1
    19    23    25   ar
    20    19    25    1
    21    21    23   ar
    22     7    23    1
    23    21    22   ar
    24     5    21    1
    25     6    22    1
    26    19    20   ar
    27    17    19   ar
    28    18    20   ar
    29    16    18   ar
    30     4    18    1
    31    15    17   ar
    32     3    17    1
    33    15    16   ar
    34     1    15    1
    35     2    16    1
@<TRIPOS>SUBSTRUCTURE
     1 lig         1 TEMP              0 ****  ****    0 ROOT


########## Name:		ligand
########## HA_RMSDs:		16.8713
########## HA_RMSDh:		16.5397
########## HA_RMSDm:		11.5191
########## Cluster Size:	1
##########    Grid Score:           -8.293693
##########      Grid_vdw:           -7.257816
##########       Grid_es:           -1.035876
##########    Int_energy:           12.564179

@<TRIPOS>MOLECULE
ligand
 33 35 1 0 0
SMALL
No Charge or Current Charge


@<TRIPOS>ATOM
      1 H1         11.6029   18.9979    3.7125 H       1  lig         0.0618
      2 H2         10.1615   20.4909    2.4035 H       1  lig         0.0618
      3 H3         13.9320   19.6557    4.3105 H       1  lig         0.0624
      4 H4         10.9386   22.6951    1.5903 H       1  lig         0.0638
      5 H5         18.1894   22.3778    4.5748 H       1  lig         0.0618
      6 H6         18.1064   24.4818    3.3042 H       1  lig         0.0618
      7 H7         16.2271   20.8429    4.6020 H       1  lig         0.0624
      8 H8         16.0505   25.2817    2.2033 H       1  lig         0.0638
      9 H9         10.4420   26.1885    2.9018 H       1  lig         0.0379
     10 H10        10.5525   24.6602    2.0727 H       1  lig         0.0379
     11 H11        13.0815   26.1496    2.9998 H       1  lig         0.0288
     12 H12        12.2513   26.6423    1.5404 H       1  lig         0.0288
     13 H13        14.0072   25.1601    0.8472 H       1  lig         0.0492
     14 H14        12.4756   24.3201    0.6149 H       1  lig         0.0492
     15 C1         11.9928   19.9565    3.3821 C.ar    1  lig        -0.0611
     16 C2         11.1750   20.8103    2.6279 C.ar    1  lig        -0.0598
     17 C3         13.3021   20.3174    3.7217 C.ar    1  lig        -0.0520
     18 C4         11.6055   22.0599    2.1669 C.ar    1  lig        -0.0376
     19 C5         13.7444   21.5583    3.2625 C.ar    1  lig         0.0076
     20 C6         12.9089   22.4757    2.4624 C.ar    1  lig         0.0501
     21 C7         17.2611   22.6794    4.0938 C.ar    1  lig        -0.0611
     22 C8         17.2006   23.9137    3.4258 C.ar    1  lig        -0.0598
     23 C9         16.1674   21.8025    4.1009 C.ar    1  lig        -0.0520
     24 C10        16.0469   24.3399    2.7454 C.ar    1  lig        -0.0376
     25 C11        15.0228   22.2205    3.4349 C.ar    1  lig         0.0076
     26 C12        14.9222   23.5133    2.7212 C.ar    1  lig         0.0501
     27 C13        11.2265   24.6445    4.1097 C.2     1  lig         0.3561
     28 C14        11.0825   25.3169    2.7616 C.3     1  lig         0.0508
     29 C15        12.4368   25.7886    2.1973 C.3     1  lig        -0.0247
     30 C16        13.1620   24.7091    1.3730 C.3     1  lig         0.0244
     31 N1         13.6559   23.5912    2.1916 N.pl3   1  lig        -0.3398
     32 O1         10.1545   24.3507    4.8389 O.co2   1  lig        -0.2464
     33 O2         12.3267   24.3612    4.5611 O.co2   1  lig        -0.2464
@<TRIPOS>BOND
     1    27    33    1
     2    27    32    1
     3    27    28    1
     4    28    29    1
     5     9    28    1
     6    10    28    1
     7    29    30    1
     8    11    29    1
     9    12    29    1
    10    30    31    1
    11    13    30    1
    12    14    30    1
    13    26    31    1
    14    20    31    1
    15    24    26   ar
    16    25    26   ar
    17    22    24   ar
    18     8    24    1
    19    23    25   ar
    20    19    25    1
    21    21    23   ar
    22     7    23    1
    23    21    22   ar
    24     5    21    1
    25     6    22    1
    26    19    20   ar
    27    17    19   ar
    28    18    20   ar
    29    16    18   ar
    30     4    18    1
    31    15    17   ar
    32     3    17    1
    33    15    16   ar
    34     1    15    1
    35     2    16    1
@<TRIPOS>SUBSTRUCTURE
     1 lig         1 TEMP              0 ****  ****    0 ROOT


########## Name:		ligand
########## HA_RMSDs:		15.8355
########## HA_RMSDh:		15.7965
########## HA_RMSDm:		12.6586
########## Cluster Size:	1
##########    Grid Score:           -7.201646
##########      Grid_vdw:           -6.812305
##########       Grid_es:           -0.389341
##########    Int_energy:            4.498654

@<TRIPOS>MOLECULE
ligand
 33 35 1 0 0
SMALL
No Charge or Current Charge


@<TRIPOS>ATOM
      1 H1         29.2048   13.3966    2.0205 H       1  lig         0.0618
      2 H2         30.1388   11.9680    3.7833 H       1  lig         0.0618
      3 H3         26.8445   14.1921    2.1244 H       1  lig         0.0624
      4 H4         28.7983   11.2237    5.7257 H       1  lig         0.0638
      5 H5         22.1021   14.8201    3.7740 H       1  lig         0.0618
      6 H6         21.5798   13.5463    5.8118 H       1  lig         0.0618
      7 H7         24.3665   14.6793    2.7444 H       1  lig         0.0624
      8 H8         23.2897   12.2726    7.0497 H       1  lig         0.0638
      9 H9         28.0385   12.6719    9.5554 H       1  lig         0.0379
     10 H10        28.3989   12.3664    7.8785 H       1  lig         0.0379
     11 H11        25.4638   12.6665    8.6031 H       1  lig         0.0288
     12 H12        26.2833   11.2830    9.2932 H       1  lig         0.0288
     13 H13        25.2761   10.5483    7.2295 H       1  lig         0.0492
     14 H14        27.0263   10.5528    7.0236 H       1  lig         0.0492
     15 C1         28.5735   13.1005    2.8536 C.ar    1  lig        -0.0611
     16 C2         29.1008   12.2785    3.8600 C.ar    1  lig        -0.0598
     17 C3         27.2490   13.5511    2.9033 C.ar    1  lig        -0.0520
     18 C4         28.3507   11.8557    4.9635 C.ar    1  lig        -0.0376
     19 C5         26.4896   13.1312    3.9957 C.ar    1  lig         0.0076
     20 C6         27.0152   12.2619    5.0672 C.ar    1  lig         0.0501
     21 C7         22.8896   14.2610    4.2754 C.ar    1  lig        -0.0611
     22 C8         22.6011   13.5898    5.4752 C.ar    1  lig        -0.0598
     23 C9         24.1560   14.1745    3.6805 C.ar    1  lig        -0.0520
     24 C10        23.5606   12.8127    6.1466 C.ar    1  lig        -0.0376
     25 C11        25.1100   13.4125    4.3421 C.ar    1  lig         0.0076
     26 C12        24.8426   12.6923    5.6074 C.ar    1  lig         0.0501
     27 C13        27.4542   14.2504    8.2804 C.2     1  lig         0.3561
     28 C14        27.6391   12.7719    8.5454 C.3     1  lig         0.0508
     29 C15        26.3113   11.9940    8.4634 C.3     1  lig        -0.0247
     30 C16        26.1522   11.1974    7.1555 C.3     1  lig         0.0244
     31 N1         26.0061   12.0559    5.9698 N.pl3   1  lig        -0.3398
     32 O1         27.2927   15.1046    9.2861 O.co2   1  lig        -0.2464
     33 O2         27.4435   14.6924    7.1407 O.co2   1  lig        -0.2464
@<TRIPOS>BOND
     1    27    33    1
     2    27    32    1
     3    27    28    1
     4    28    29    1
     5     9    28    1
     6    10    28    1
     7    29    30    1
     8    11    29    1
     9    12    29    1
    10    30    31    1
    11    13    30    1
    12    14    30    1
    13    26    31    1
    14    20    31    1
    15    24    26   ar
    16    25    26   ar
    17    22    24   ar
    18     8    24    1
    19    23    25   ar
    20    19    25    1
    21    21    23   ar
    22     7    23    1
    23    21    22   ar
    24     5    21    1
    25     6    22    1
    26    19    20   ar
    27    17    19   ar
    28    18    20   ar
    29    16    18   ar
    30     4    18    1
    31    15    17   ar
    32     3    17    1
    33    15    16   ar
    34     1    15    1
    35     2    16    1
@<TRIPOS>SUBSTRUCTURE
     1 lig         1 TEMP              0 ****  ****    0 ROOT


########## Name:		ligand
########## HA_RMSDs:		17.1429
########## HA_RMSDh:		17.0711
########## HA_RMSDm:		15.6093
########## Cluster Size:	1
##########    Grid Score:           -7.184553
##########      Grid_vdw:           -6.994511
##########       Grid_es:           -0.190042
##########    Int_energy:            7.626340

@<TRIPOS>MOLECULE
ligand
 33 35 1 0 0
SMALL
No Charge or Current Charge


@<TRIPOS>ATOM
      1 H1         29.6832   33.5906   15.6610 H       1  lig         0.0618
      2 H2         31.1692   32.2843   14.2098 H       1  lig         0.0618
      3 H3         27.2296   33.6938   15.2317 H       1  lig         0.0624
      4 H4         30.3295   31.0332   12.2469 H       1  lig         0.0638
      5 H5         22.7502   32.9184   13.0093 H       1  lig         0.0618
      6 H6         22.8814   31.5992   10.9380 H       1  lig         0.0618
      7 H7         24.8153   33.4550   14.2957 H       1  lig         0.0624
      8 H8         24.9795   30.5638   10.1602 H       1  lig         0.0638
      9 H9         28.3795   27.2674   12.2411 H       1  lig         0.0379
     10 H10        27.2239   28.5360   12.5419 H       1  lig         0.0379
     11 H11        29.1693   28.4644   10.1361 H       1  lig         0.0288
     12 H12        29.5189   29.2731   11.6479 H       1  lig         0.0288
     13 H13        27.1811   30.0016    9.8314 H       1  lig         0.0492
     14 H14        28.7162   30.8625    9.9205 H       1  lig         0.0492
     15 C1         29.2625   33.0573   14.8132 C.ar    1  lig        -0.0611
     16 C2         30.1087   32.3149   13.9770 C.ar    1  lig        -0.0598
     17 C3         27.8837   33.1216   14.5791 C.ar    1  lig        -0.0520
     18 C4         29.6417   31.6018   12.8667 C.ar    1  lig        -0.0376
     19 C5         27.4073   32.4195   13.4716 C.ar    1  lig         0.0076
     20 C6         28.2741   31.6343   12.5704 C.ar    1  lig         0.0501
     21 C7         23.7039   32.4949   12.7009 C.ar    1  lig        -0.0611
     22 C8         23.7601   31.6870   11.5531 C.ar    1  lig        -0.0598
     23 C9         24.8628   32.8152   13.4217 C.ar    1  lig        -0.0520
     24 C10        24.9676   31.1490   11.0758 C.ar    1  lig        -0.0376
     25 C11        26.0583   32.2820   12.9581 C.ar    1  lig         0.0076
     26 C12        26.1559   31.4269   11.7537 C.ar    1  lig         0.0501
     27 C13        26.8061   27.3071   10.8335 C.2     1  lig         0.3561
     28 C14        27.7716   28.0277   11.7492 C.3     1  lig         0.0508
     29 C15        28.7062   28.9803   10.9783 C.3     1  lig        -0.0247
     30 C16        28.0054   30.2648   10.4990 C.3     1  lig         0.0244
     31 N1         27.4781   31.0820   11.6026 N.pl3   1  lig        -0.3398
     32 O1         26.1093   26.2623   11.2697 O.co2   1  lig        -0.2464
     33 O2         26.6480   27.6628    9.6746 O.co2   1  lig        -0.2464
@<TRIPOS>BOND
     1    27    33    1
     2    27    32    1
     3    27    28    1
     4    28    29    1
     5     9    28    1
     6    10    28    1
     7    29    30    1
     8    11    29    1
     9    12    29    1
    10    30    31    1
    11    13    30    1
    12    14    30    1
    13    26    31    1
    14    20    31    1
    15    24    26   ar
    16    25    26   ar
    17    22    24   ar
    18     8    24    1
    19    23    25   ar
    20    19    25    1
    21    21    23   ar
    22     7    23    1
    23    21    22   ar
    24     5    21    1
    25     6    22    1
    26    19    20   ar
    27    17    19   ar
    28    18    20   ar
    29    16    18   ar
    30     4    18    1
    31    15    17   ar
    32     3    17    1
    33    15    16   ar
    34     1    15    1
    35     2    16    1
@<TRIPOS>SUBSTRUCTURE
     1 lig         1 TEMP              0 ****  ****    0 ROOT


########## Name:		ligand
########## HA_RMSDs:		15.4782
########## HA_RMSDh:		15.4716
########## HA_RMSDm:		12.9602
########## Cluster Size:	1
##########    Grid Score:           -6.874705
##########      Grid_vdw:           -6.644491
##########       Grid_es:           -0.230214
##########    Int_energy:            4.837377

@<TRIPOS>MOLECULE
ligand
 33 35 1 0 0
SMALL
No Charge or Current Charge


@<TRIPOS>ATOM
      1 H1         28.4365   10.6035    3.4969 H       1  lig         0.0618
      2 H2         28.2453    9.0657    5.3993 H       1  lig         0.0618
      3 H3         26.5092   12.0151    2.7844 H       1  lig         0.0624
      4 H4         26.1459    8.8131    6.6847 H       1  lig         0.0638
      5 H5         21.8531   13.9915    2.6428 H       1  lig         0.0618
      6 H6         20.3054   13.0123    4.2840 H       1  lig         0.0618
      7 H7         24.2069   13.1884    2.4936 H       1  lig         0.0624
      8 H8         21.0380   11.3857    5.9859 H       1  lig         0.0638
      9 H9         24.9725   10.6043    8.7565 H       1  lig         0.0379
     10 H10        23.9732   11.5207    9.8505 H       1  lig         0.0379
     11 H11        22.5063   11.4003    7.9776 H       1  lig         0.0288
     12 H12        22.0488    9.9216    8.7938 H       1  lig         0.0288
     13 H13        22.3846    9.0303    6.7084 H       1  lig         0.0492
     14 H14        24.0126    8.8409    7.3560 H       1  lig         0.0492
     15 C1         27.4921   10.5327    4.0291 C.ar    1  lig        -0.0611
     16 C2         27.3759    9.6503    5.1127 C.ar    1  lig        -0.0598
     17 C3         26.4148   11.3285    3.6215 C.ar    1  lig        -0.0520
     18 C4         26.1934    9.5036    5.8471 C.ar    1  lig        -0.0376
     19 C5         25.2287   11.1866    4.3424 C.ar    1  lig         0.0076
     20 C6         25.0748   10.2624    5.4835 C.ar    1  lig         0.0501
     21 C7         22.2227   13.2654    3.3640 C.ar    1  lig        -0.0611
     22 C8         21.3498   12.7594    4.3415 C.ar    1  lig        -0.0598
     23 C9         23.5439   12.8078    3.2624 C.ar    1  lig        -0.0520
     24 C10        21.7525   11.7856    5.2715 C.ar    1  lig        -0.0376
     25 C11        23.9492   11.8496    4.1821 C.ar    1  lig         0.0076
     26 C12        23.0583   11.2940    5.2255 C.ar    1  lig         0.0501
     27 C13        24.1007    9.4209   10.2724 C.2     1  lig         0.3561
     28 C14        24.0288   10.5807    9.3029 C.3     1  lig         0.0508
     29 C15        22.8786   10.4234    8.2894 C.3     1  lig        -0.0247
     30 C16        23.2617    9.5795    7.0599 C.3     1  lig         0.0244
     31 N1         23.7926   10.3843    5.9489 N.pl3   1  lig        -0.3398
     32 O1         25.2548    9.0796   10.8372 O.co2   1  lig        -0.2464
     33 O2         23.1054    8.7695   10.5546 O.co2   1  lig        -0.2464
@<TRIPOS>BOND
     1    27    33    1
     2    27    32    1
     3    27    28    1
     4    28    29    1
     5     9    28    1
     6    10    28    1
     7    29    30    1
     8    11    29    1
     9    12    29    1
    10    30    31    1
    11    13    30    1
    12    14    30    1
    13    26    31    1
    14    20    31    1
    15    24    26   ar
    16    25    26   ar
    17    22    24   ar
    18     8    24    1
    19    23    25   ar
    20    19    25    1
    21    21    23   ar
    22     7    23    1
    23    21    22   ar
    24     5    21    1
    25     6    22    1
    26    19    20   ar
    27    17    19   ar
    28    18    20   ar
    29    16    18   ar
    30     4    18    1
    31    15    17   ar
    32     3    17    1
    33    15    16   ar
    34     1    15    1
    35     2    16    1
@<TRIPOS>SUBSTRUCTURE
     1 lig         1 TEMP              0 ****  ****    0 ROOT


########## Name:		ligand
########## HA_RMSDs:		16.1143
########## HA_RMSDh:		16.0273
########## HA_RMSDm:		13.2711
########## Cluster Size:	1
##########    Grid Score:           -6.865008
##########      Grid_vdw:           -7.588548
##########       Grid_es:            0.723539
##########    Int_energy:            6.504986

@<TRIPOS>MOLECULE
ligand
 33 35 1 0 0
SMALL
No Charge or Current Charge


@<TRIPOS>ATOM
      1 H1         24.1251   34.2369   12.7688 H       1  lig         0.0618
      2 H2         26.1707   34.0015   11.4345 H       1  lig         0.0618
      3 H3         22.2235   32.6473   12.5005 H       1  lig         0.0624
      4 H4         26.4467   32.2109    9.7489 H       1  lig         0.0638
      5 H5         19.4497   28.7989   10.7396 H       1  lig         0.0618
      6 H6         20.5092   27.5723    8.8900 H       1  lig         0.0618
      7 H7         20.5990   30.7481   11.7821 H       1  lig         0.0624
      8 H8         22.8084   28.0446    8.1356 H       1  lig         0.0638
      9 H9         27.3614   27.2415    9.0861 H       1  lig         0.0379
     10 H10        27.4678   28.9270    9.5140 H       1  lig         0.0379
     11 H11        24.7560   27.7698    8.6847 H       1  lig         0.0288
     12 H12        25.9714   28.0093    7.4488 H       1  lig         0.0288
     13 H13        24.8733   30.0395    7.3068 H       1  lig         0.0492
     14 H14        26.1844   30.4457    8.4120 H       1  lig         0.0492
     15 C1         24.1958   33.4310   12.0438 C.ar    1  lig        -0.0611
     16 C2         25.3602   33.2965   11.2740 C.ar    1  lig        -0.0598
     17 C3         23.1227   32.5436   11.8990 C.ar    1  lig        -0.0520
     18 C4         25.5258   32.2849   10.3209 C.ar    1  lig        -0.0376
     19 C5         23.2739   31.5345   10.9476 C.ar    1  lig         0.0076
     20 C6         24.4849   31.3711   10.1190 C.ar    1  lig         0.0501
     21 C7         20.4619   29.0558   10.4339 C.ar    1  lig        -0.0611
     22 C8         21.0867   28.3083    9.4219 C.ar    1  lig        -0.0598
     23 C9         21.0945   30.1637   11.0150 C.ar    1  lig        -0.0520
     24 C10        22.3737   28.6183    8.9496 C.ar    1  lig        -0.0376
     25 C11        22.3685   30.4717   10.5562 C.ar    1  lig         0.0076
     26 C12        23.0580   29.7071    9.4928 C.ar    1  lig         0.0501
     27 C13        26.2479   27.7311   10.8121 C.2     1  lig         0.3561
     28 C14        26.7744   28.0901    9.4395 C.3     1  lig         0.0508
     29 C15        25.6401   28.3564    8.4309 C.3     1  lig        -0.0247
     30 C16        25.2750   29.8469    8.3048 C.3     1  lig         0.0244
     31 N1         24.2900   30.2875    9.3046 N.pl3   1  lig        -0.3398
     32 O1         26.1383   26.4598   11.1852 O.co2   1  lig        -0.2464
     33 O2         25.9073   28.5966   11.6055 O.co2   1  lig        -0.2464
@<TRIPOS>BOND
     1    27    33    1
     2    27    32    1
     3    27    28    1
     4    28    29    1
     5     9    28    1
     6    10    28    1
     7    29    30    1
     8    11    29    1
     9    12    29    1
    10    30    31    1
    11    13    30    1
    12    14    30    1
    13    26    31    1
    14    20    31    1
    15    24    26   ar
    16    25    26   ar
    17    22    24   ar
    18     8    24    1
    19    23    25   ar
    20    19    25    1
    21    21    23   ar
    22     7    23    1
    23    21    22   ar
    24     5    21    1
    25     6    22    1
    26    19    20   ar
    27    17    19   ar
    28    18    20   ar
    29    16    18   ar
    30     4    18    1
    31    15    17   ar
    32     3    17    1
    33    15    16   ar
    34     1    15    1
    35     2    16    1
@<TRIPOS>SUBSTRUCTURE
     1 lig         1 TEMP              0 ****  ****    0 ROOT


########## Name:		ligand
########## HA_RMSDs:		16.4369
########## HA_RMSDh:		16.4221
########## HA_RMSDm:		15.1475
########## Cluster Size:	1
##########    Grid Score:           -6.858715
##########      Grid_vdw:           -6.571482
##########       Grid_es:           -0.287233
##########    Int_energy:            2.901143

@<TRIPOS>MOLECULE
ligand
 33 35 1 0 0
SMALL
No Charge or Current Charge


@<TRIPOS>ATOM
      1 H1         30.0163   32.8897   10.4194 H       1  lig         0.0618
      2 H2         29.8760   33.3939   12.8166 H       1  lig         0.0618
      3 H3         28.0503   31.9942    9.1754 H       1  lig         0.0624
      4 H4         27.8081   33.0208   14.1235 H       1  lig         0.0638
      5 H5         23.3848   30.2634    8.2573 H       1  lig         0.0618
      6 H6         21.9700   30.1025   10.2624 H       1  lig         0.0618
      7 H7         25.7335   31.0758    8.4330 H       1  lig         0.0624
      8 H8         22.7004   30.9321   12.4663 H       1  lig         0.0638
      9 H9         25.6934   30.0376   16.9040 H       1  lig         0.0379
     10 H10        25.8490   31.7650   16.7390 H       1  lig         0.0379
     11 H11        24.1857   30.1028   14.7487 H       1  lig         0.0288
     12 H12        25.9274   30.1899   14.6046 H       1  lig         0.0288
     13 H13        25.5526   32.8192   14.7083 H       1  lig         0.0492
     14 H14        23.9198   32.3990   14.1957 H       1  lig         0.0492
     15 C1         29.0832   32.7097   10.9456 C.ar    1  lig        -0.0611
     16 C2         29.0001   32.9899   12.3172 C.ar    1  lig        -0.0598
     17 C3         27.9845   32.2058   10.2393 C.ar    1  lig        -0.0520
     18 C4         27.8337   32.7849   13.0632 C.ar    1  lig        -0.0376
     19 C5         26.8178   31.9917   10.9737 C.ar    1  lig         0.0076
     20 C6         26.7021   32.2718   12.4188 C.ar    1  lig         0.0501
     21 C7         23.7595   30.6303    9.2108 C.ar    1  lig        -0.0611
     22 C8         22.9227   30.5971   10.3387 C.ar    1  lig        -0.0598
     23 C9         25.0871   31.0708    9.3034 C.ar    1  lig        -0.0520
     24 C10        23.3616   31.0122   11.6077 C.ar    1  lig        -0.0376
     25 C11        25.5249   31.4873   10.5537 C.ar    1  lig         0.0076
     26 C12        24.6722   31.4670   11.7635 C.ar    1  lig         0.0501
     27 C13        23.8713   31.0656   17.1897 C.2     1  lig         0.3561
     28 C14        25.2059   30.9215   16.4909 C.3     1  lig         0.0508
     29 C15        25.0502   30.7303   14.9697 C.3     1  lig        -0.0247
     30 C16        24.9594   32.0580   14.1954 C.3     1  lig         0.0244
     31 N1         25.4283   31.9499   12.8053 N.pl3   1  lig        -0.3398
     32 O1         23.7515   30.7943   18.4856 O.co2   1  lig        -0.2464
     33 O2         22.8746   31.4282   16.5817 O.co2   1  lig        -0.2464
@<TRIPOS>BOND
     1    27    33    1
     2    27    32    1
     3    27    28    1
     4    28    29    1
     5     9    28    1
     6    10    28    1
     7    29    30    1
     8    11    29    1
     9    12    29    1
    10    30    31    1
    11    13    30    1
    12    14    30    1
    13    26    31    1
    14    20    31    1
    15    24    26   ar
    16    25    26   ar
    17    22    24   ar
    18     8    24    1
    19    23    25   ar
    20    19    25    1
    21    21    23   ar
    22     7    23    1
    23    21    22   ar
    24     5    21    1
    25     6    22    1
    26    19    20   ar
    27    17    19   ar
    28    18    20   ar
    29    16    18   ar
    30     4    18    1
    31    15    17   ar
    32     3    17    1
    33    15    16   ar
    34     1    15    1
    35     2    16    1
@<TRIPOS>SUBSTRUCTURE
     1 lig         1 TEMP              0 ****  ****    0 ROOT


########## Name:		ligand
########## HA_RMSDs:		16.9311
########## HA_RMSDh:		16.8717
########## HA_RMSDm:		15.2069
########## Cluster Size:	1
##########    Grid Score:           -6.307753
##########      Grid_vdw:           -5.705318
##########       Grid_es:           -0.602434
##########    Int_energy:           16.525278

@<TRIPOS>MOLECULE
ligand
 33 35 1 0 0
SMALL
No Charge or Current Charge


@<TRIPOS>ATOM
      1 H1         26.4895   33.5572   18.0595 H       1  lig         0.0618
      2 H2         28.0428   31.7551   17.4592 H       1  lig         0.0618
      3 H3         24.9254   34.5224   16.3752 H       1  lig         0.0624
      4 H4         28.1612   30.8247   15.1693 H       1  lig         0.0638
      5 H5         22.6048   35.3373   11.9530 H       1  lig         0.0618
      6 H6         23.4952   33.9902   10.0982 H       1  lig         0.0618
      7 H7         23.5785   35.1375   14.2376 H       1  lig         0.0624
      8 H8         25.2023   32.2431   10.4332 H       1  lig         0.0638
      9 H9         25.2067   28.0949   13.0324 H       1  lig         0.0379
     10 H10        24.7760   29.7575   13.3248 H       1  lig         0.0379
     11 H11        27.4216   28.7378   12.0820 H       1  lig         0.0288
     12 H12        27.2136   29.2729   13.7349 H       1  lig         0.0288
     13 H13        26.9982   31.0288   11.2571 H       1  lig         0.0492
     14 H14        28.2538   31.0693   12.4930 H       1  lig         0.0492
     15 C1         26.4992   33.1828   17.0398 C.ar    1  lig        -0.0611
     16 C2         27.3899   32.1576   16.6902 C.ar    1  lig        -0.0598
     17 C3         25.6181   33.7313   16.1002 C.ar    1  lig        -0.0520
     18 C4         27.4611   31.6235   15.3984 C.ar    1  lig        -0.0376
     19 C5         25.6840   33.2109   14.8075 C.ar    1  lig         0.0076
     20 C6         26.6146   32.1362   14.4086 C.ar    1  lig         0.0501
     21 C7         23.3694   34.5887   12.1507 C.ar    1  lig        -0.0611
     22 C8         23.8263   33.7764   11.0996 C.ar    1  lig        -0.0598
     23 C9         23.9223   34.4943   13.4354 C.ar    1  lig        -0.0520
     24 C10        24.8441   32.8238   11.2789 C.ar    1  lig        -0.0376
     25 C11        24.9246   33.5510   13.6201 C.ar    1  lig         0.0076
     26 C12        25.4308   32.6780   12.5372 C.ar    1  lig         0.0501
     27 C13        24.7999   29.1702   11.2613 C.2     1  lig         0.3561
     28 C14        25.3567   29.1117   12.6672 C.3     1  lig         0.0508
     29 C15        26.8635   29.4320   12.7118 C.3     1  lig        -0.0247
     30 C16        27.1885   30.8861   12.3237 C.3     1  lig         0.0244
     31 N1         26.4056   31.8752   13.0806 N.pl3   1  lig        -0.3398
     32 O1         24.5163   28.0541   10.5971 O.co2   1  lig        -0.2464
     33 O2         24.6031   30.2397   10.7027 O.co2   1  lig        -0.2464
@<TRIPOS>BOND
     1    27    33    1
     2    27    32    1
     3    27    28    1
     4    28    29    1
     5     9    28    1
     6    10    28    1
     7    29    30    1
     8    11    29    1
     9    12    29    1
    10    30    31    1
    11    13    30    1
    12    14    30    1
    13    26    31    1
    14    20    31    1
    15    24    26   ar
    16    25    26   ar
    17    22    24   ar
    18     8    24    1
    19    23    25   ar
    20    19    25    1
    21    21    23   ar
    22     7    23    1
    23    21    22   ar
    24     5    21    1
    25     6    22    1
    26    19    20   ar
    27    17    19   ar
    28    18    20   ar
    29    16    18   ar
    30     4    18    1
    31    15    17   ar
    32     3    17    1
    33    15    16   ar
    34     1    15    1
    35     2    16    1
@<TRIPOS>SUBSTRUCTURE
     1 lig         1 TEMP              0 ****  ****    0 ROOT


########## Name:		ligand
########## HA_RMSDs:		18.1611
########## HA_RMSDh:		17.9894
########## HA_RMSDm:		16.3619
########## Cluster Size:	1
##########    Grid Score:           -6.289168
##########      Grid_vdw:           -6.267136
##########       Grid_es:           -0.022033
##########    Int_energy:            5.725853

@<TRIPOS>MOLECULE
ligand
 33 35 1 0 0
SMALL
No Charge or Current Charge


@<TRIPOS>ATOM
      1 H1         25.4409   34.0180    3.8977 H       1  lig         0.0618
      2 H2         26.3138   31.7364    3.6670 H       1  lig         0.0618
      3 H3         24.3972   34.7874    6.0269 H       1  lig         0.0624
      4 H4         26.1841   30.0831    5.5037 H       1  lig         0.0638
      5 H5         22.6261   34.6907   10.7659 H       1  lig         0.0618
      6 H6         22.8032   32.4906   11.8504 H       1  lig         0.0618
      7 H7         23.4151   35.0097    8.4243 H       1  lig         0.0624
      8 H8         23.9522   30.5832   10.7919 H       1  lig         0.0638
      9 H9         23.4262   26.5662    9.0656 H       1  lig         0.0379
     10 H10        24.4532   26.7377    7.6688 H       1  lig         0.0379
     11 H11        23.8247   28.8810    9.8085 H       1  lig         0.0288
     12 H12        23.2328   28.8493    8.1621 H       1  lig         0.0288
     13 H13        25.6830   28.9848    7.3766 H       1  lig         0.0492
     14 H14        26.0903   29.3681    9.0477 H       1  lig         0.0492
     15 C1         25.3611   33.3320    4.7363 C.ar    1  lig        -0.0611
     16 C2         25.8524   32.0249    4.6069 C.ar    1  lig        -0.0598
     17 C3         24.7727   33.7723    5.9279 C.ar    1  lig        -0.0520
     18 C4         25.7860   31.0847    5.6417 C.ar    1  lig        -0.0376
     19 C5         24.6955   32.8419    6.9645 C.ar    1  lig         0.0076
     20 C6         25.1987   31.4581    6.8561 C.ar    1  lig         0.0501
     21 C7         23.1301   33.8759   10.2501 C.ar    1  lig        -0.0611
     22 C8         23.2870   32.6409   10.9009 C.ar    1  lig        -0.0598
     23 C9         23.5565   34.0597    8.9274 C.ar    1  lig        -0.0520
     24 C10        23.8865   31.5356   10.2729 C.ar    1  lig        -0.0376
     25 C11        24.1546   32.9728    8.3034 C.ar    1  lig         0.0076
     26 C12        24.3372   31.6575    8.9573 C.ar    1  lig         0.0501
     27 C13        25.4813   26.6148    9.5480 C.2     1  lig         0.3561
     28 C14        24.3179   27.0740    8.6960 C.3     1  lig         0.0508
     29 C15        24.0908   28.5953    8.7899 C.3     1  lig        -0.0247
     30 C16        25.2938   29.4218    8.2996 C.3     1  lig         0.0244
     31 N1         24.9629   30.8336    8.0519 N.pl3   1  lig        -0.3398
     32 O1         25.2942   26.2541   10.8137 O.co2   1  lig        -0.2464
     33 O2         26.6167   26.5694    9.0970 O.co2   1  lig        -0.2464
@<TRIPOS>BOND
     1    27    33    1
     2    27    32    1
     3    27    28    1
     4    28    29    1
     5     9    28    1
     6    10    28    1
     7    29    30    1
     8    11    29    1
     9    12    29    1
    10    30    31    1
    11    13    30    1
    12    14    30    1
    13    26    31    1
    14    20    31    1
    15    24    26   ar
    16    25    26   ar
    17    22    24   ar
    18     8    24    1
    19    23    25   ar
    20    19    25    1
    21    21    23   ar
    22     7    23    1
    23    21    22   ar
    24     5    21    1
    25     6    22    1
    26    19    20   ar
    27    17    19   ar
    28    18    20   ar
    29    16    18   ar
    30     4    18    1
    31    15    17   ar
    32     3    17    1
    33    15    16   ar
    34     1    15    1
    35     2    16    1
@<TRIPOS>SUBSTRUCTURE
     1 lig         1 TEMP              0 ****  ****    0 ROOT


########## Name:		ligand
########## HA_RMSDs:		18.0788
########## HA_RMSDh:		18.0521
########## HA_RMSDm:		12.3085
########## Cluster Size:	1
##########    Grid Score:           -6.188696
##########      Grid_vdw:           -5.916902
##########       Grid_es:           -0.271794
##########    Int_energy:            2.873233

@<TRIPOS>MOLECULE
ligand
 33 35 1 0 0
SMALL
No Charge or Current Charge


@<TRIPOS>ATOM
      1 H1         13.5753   24.9857    3.6919 H       1  lig         0.0618
      2 H2         13.7997   22.9366    5.0229 H       1  lig         0.0618
      3 H3         11.5101   25.4438    2.3729 H       1  lig         0.0624
      4 H4         12.0211   21.2182    5.1079 H       1  lig         0.0638
      5 H5          6.9193   24.8031    0.3433 H       1  lig         0.0618
      6 H6          5.8820   22.6412    0.8896 H       1  lig         0.0618
      7 H7          9.1870   25.3679    1.2070 H       1  lig         0.0624
      8 H8          6.9015   21.0472    2.4702 H       1  lig         0.0638
      9 H9         11.5200   19.7900    2.5044 H       1  lig         0.0379
     10 H10        11.6562   18.7279    3.8787 H       1  lig         0.0379
     11 H11         9.1229   18.2056    3.5611 H       1  lig         0.0288
     12 H12         9.1278   19.3683    2.2533 H       1  lig         0.0288
     13 H13         9.9507   20.1726    5.0679 H       1  lig         0.0492
     14 H14         8.2769   20.2177    4.5185 H       1  lig         0.0492
     15 C1         12.7629   24.2644    3.6966 C.ar    1  lig        -0.0611
     16 C2         12.8893   23.0887    4.4504 C.ar    1  lig        -0.0598
     17 C3         11.6072   24.5295    2.9523 C.ar    1  lig        -0.0520
     18 C4         11.8871   22.1133    4.5066 C.ar    1  lig        -0.0376
     19 C5         10.6035   23.5614    2.9958 C.ar    1  lig         0.0076
     20 C6         10.7102   22.3120    3.7753 C.ar    1  lig         0.0501
     21 C7          7.4173   24.1273    1.0357 C.ar    1  lig        -0.0611
     22 C8          6.7888   22.9236    1.3956 C.ar    1  lig        -0.0598
     23 C9          8.6996   24.4461    1.5040 C.ar    1  lig        -0.0520
     24 C10         7.3991   21.9872    2.2478 C.ar    1  lig        -0.0376
     25 C11         9.3055   23.5272    2.3507 C.ar    1  lig         0.0076
     26 C12         8.6741   22.2499    2.7519 C.ar    1  lig         0.0501
     27 C13        11.3500   17.7479    1.9947 C.2     1  lig         0.3561
     28 C14        11.1006   18.8900    2.9558 C.3     1  lig         0.0508
     29 C15         9.5983   19.1221    3.2088 C.3     1  lig        -0.0247
     30 C16         9.3169   20.2797    4.1841 C.3     1  lig         0.0244
     31 N1          9.5517   21.6053    3.5912 N.pl3   1  lig        -0.3398
     32 O1         11.4212   17.9667    0.6854 O.co2   1  lig        -0.2464
     33 O2         11.4862   16.6013    2.3962 O.co2   1  lig        -0.2464
@<TRIPOS>BOND
     1    27    33    1
     2    27    32    1
     3    27    28    1
     4    28    29    1
     5     9    28    1
     6    10    28    1
     7    29    30    1
     8    11    29    1
     9    12    29    1
    10    30    31    1
    11    13    30    1
    12    14    30    1
    13    26    31    1
    14    20    31    1
    15    24    26   ar
    16    25    26   ar
    17    22    24   ar
    18     8    24    1
    19    23    25   ar
    20    19    25    1
    21    21    23   ar
    22     7    23    1
    23    21    22   ar
    24     5    21    1
    25     6    22    1
    26    19    20   ar
    27    17    19   ar
    28    18    20   ar
    29    16    18   ar
    30     4    18    1
    31    15    17   ar
    32     3    17    1
    33    15    16   ar
    34     1    15    1
    35     2    16    1
@<TRIPOS>SUBSTRUCTURE
     1 lig         1 TEMP              0 ****  ****    0 ROOT


########## Name:		ligand
########## HA_RMSDs:		16.6199
########## HA_RMSDh:		16.6175
########## HA_RMSDm:		12.6737
########## Cluster Size:	1
##########    Grid Score:           -6.096109
##########      Grid_vdw:           -5.995799
##########       Grid_es:           -0.100311
##########    Int_energy:            2.827825

@<TRIPOS>MOLECULE
ligand
 33 35 1 0 0
SMALL
No Charge or Current Charge


@<TRIPOS>ATOM
      1 H1         31.0367   15.3535    6.3851 H       1  lig         0.0618
      2 H2         29.1826   15.4468    7.9894 H       1  lig         0.0618
      3 H3         30.8586   14.0158    4.2889 H       1  lig         0.0624
      4 H4         27.0680   14.2117    7.6340 H       1  lig         0.0638
      5 H5         28.9536   10.9305    0.7595 H       1  lig         0.0618
      6 H6         26.7388   10.0217    1.3218 H       1  lig         0.0618
      7 H7         30.1226   12.4681    2.3332 H       1  lig         0.0624
      8 H8         25.4809   10.7428    3.3160 H       1  lig         0.0638
      9 H9         23.3313   12.8307    7.5687 H       1  lig         0.0379
     10 H10        22.5712   14.1695    6.7531 H       1  lig         0.0379
     11 H11        24.9791   14.4097    6.3482 H       1  lig         0.0288
     12 H12        24.3082   13.7871    4.8568 H       1  lig         0.0288
     13 H13        24.9633   11.4672    5.4725 H       1  lig         0.0492
     14 H14        25.6651   12.0677    6.9733 H       1  lig         0.0492
     15 C1         30.1285   14.7940    6.1795 C.ar    1  lig        -0.0611
     16 C2         29.0687   14.8388    7.0967 C.ar    1  lig        -0.0598
     17 C3         30.0376   14.0447    5.0004 C.ar    1  lig        -0.0520
     18 C4         27.8682   14.1459    6.9019 C.ar    1  lig        -0.0376
     19 C5         28.8477   13.3449    4.7981 C.ar    1  lig         0.0076
     20 C6         27.7175   13.3684    5.7479 C.ar    1  lig         0.0501
     21 C7         28.4458   11.2701    1.6599 C.ar    1  lig        -0.0611
     22 C8         27.1530   10.7980    1.9414 C.ar    1  lig        -0.0598
     23 C9         29.1174   12.1227    2.5472 C.ar    1  lig        -0.0520
     24 C10        26.4623   11.1614    3.1103 C.ar    1  lig        -0.0376
     25 C11        28.4380   12.4896    3.7013 C.ar    1  lig         0.0076
     26 C12        27.0759   12.0129    4.0308 C.ar    1  lig         0.0501
     27 C13        22.3103   12.2597    5.8108 C.2     1  lig         0.3561
     28 C14        23.1443   13.2588    6.5831 C.3     1  lig         0.0508
     29 C15        24.4992   13.5368    5.9035 C.3     1  lig        -0.0247
     30 C16        25.4537   12.3290    5.9320 C.3     1  lig         0.0244
     31 N1         26.7237   12.5791    5.2331 N.pl3   1  lig        -0.3398
     32 O1         22.3881   10.9600    6.0794 O.co2   1  lig        -0.2464
     33 O2         21.5525   12.6208    4.9221 O.co2   1  lig        -0.2464
@<TRIPOS>BOND
     1    27    33    1
     2    27    32    1
     3    27    28    1
     4    28    29    1
     5     9    28    1
     6    10    28    1
     7    29    30    1
     8    11    29    1
     9    12    29    1
    10    30    31    1
    11    13    30    1
    12    14    30    1
    13    26    31    1
    14    20    31    1
    15    24    26   ar
    16    25    26   ar
    17    22    24   ar
    18     8    24    1
    19    23    25   ar
    20    19    25    1
    21    21    23   ar
    22     7    23    1
    23    21    22   ar
    24     5    21    1
    25     6    22    1
    26    19    20   ar
    27    17    19   ar
    28    18    20   ar
    29    16    18   ar
    30     4    18    1
    31    15    17   ar
    32     3    17    1
    33    15    16   ar
    34     1    15    1
    35     2    16    1
@<TRIPOS>SUBSTRUCTURE
     1 lig         1 TEMP              0 ****  ****    0 ROOT


########## Name:		ligand
########## HA_RMSDs:		17.4748
########## HA_RMSDh:		17.1041
########## HA_RMSDm:		14.2512
########## Cluster Size:	1
##########    Grid Score:           -3.978546
##########      Grid_vdw:           -3.073035
##########       Grid_es:           -0.905512
##########    Int_energy:           16.748737

@<TRIPOS>MOLECULE
ligand
 33 35 1 0 0
SMALL
No Charge or Current Charge


@<TRIPOS>ATOM
      1 H1         10.5544    6.9473    9.0012 H       1  lig         0.0618
      2 H2         11.6670    6.6704    6.8319 H       1  lig         0.0618
      3 H3         11.2688    5.6274   10.9918 H       1  lig         0.0624
      4 H4         13.5203    5.0653    6.4960 H       1  lig         0.0638
      5 H5         13.7961    2.2859   13.8294 H       1  lig         0.0618
      6 H6         15.4553    0.9705   12.5784 H       1  lig         0.0618
      7 H7         12.4049    3.9947   12.6668 H       1  lig         0.0624
      8 H8         15.9851    1.4169   10.2122 H       1  lig         0.0638
      9 H9         16.3150    4.5949    9.4131 H       1  lig         0.0379
     10 H10        17.7464    5.2095    8.6330 H       1  lig         0.0379
     11 H11        17.4591    3.1655    7.4342 H       1  lig         0.0288
     12 H12        16.5044    4.2377    6.4337 H       1  lig         0.0288
     13 H13        15.6014    1.9069    7.8668 H       1  lig         0.0492
     14 H14        14.7288    2.9165    6.7157 H       1  lig         0.0492
     15 C1         11.3651    6.2301    8.9084 C.ar    1  lig        -0.0611
     16 C2         11.9996    6.0634    7.6690 C.ar    1  lig        -0.0598
     17 C3         11.7591    5.4925   10.0312 C.ar    1  lig        -0.0520
     18 C4         13.0505    5.1603    7.4711 C.ar    1  lig        -0.0376
     19 C5         12.8019    4.5847    9.8447 C.ar    1  lig         0.0076
     20 C6         13.4850    4.3834    8.5513 C.ar    1  lig         0.0501
     21 C7         13.9829    2.5124   12.7816 C.ar    1  lig        -0.0611
     22 C8         14.9786    1.8026   12.0901 C.ar    1  lig        -0.0598
     23 C9         13.1846    3.4642   12.1319 C.ar    1  lig        -0.0520
     24 C10        15.2365    2.0148   10.7249 C.ar    1  lig        -0.0376
     25 C11        13.4384    3.6821   10.7841 C.ar    1  lig         0.0076
     26 C12        14.4787    2.9542   10.0233 C.ar    1  lig         0.0501
     27 C13        15.9123    6.1624    8.0569 C.2     1  lig         0.3561
     28 C14        16.7068    4.9373    8.4546 C.3     1  lig         0.0508
     29 C15        16.5674    3.7940    7.4307 C.3     1  lig        -0.0247
     30 C16        15.3071    2.9357    7.6443 C.3     1  lig         0.0244
     31 N1         14.4497    3.4286    8.7332 N.pl3   1  lig        -0.3398
     32 O1         15.0886    6.7465    8.9215 O.co2   1  lig        -0.2464
     33 O2         16.0041    6.6394    6.9350 O.co2   1  lig        -0.2464
@<TRIPOS>BOND
     1    27    33    1
     2    27    32    1
     3    27    28    1
     4    28    29    1
     5     9    28    1
     6    10    28    1
     7    29    30    1
     8    11    29    1
     9    12    29    1
    10    30    31    1
    11    13    30    1
    12    14    30    1
    13    26    31    1
    14    20    31    1
    15    24    26   ar
    16    25    26   ar
    17    22    24   ar
    18     8    24    1
    19    23    25   ar
    20    19    25    1
    21    21    23   ar
    22     7    23    1
    23    21    22   ar
    24     5    21    1
    25     6    22    1
    26    19    20   ar
    27    17    19   ar
    28    18    20   ar
    29    16    18   ar
    30     4    18    1
    31    15    17   ar
    32     3    17    1
    33    15    16   ar
    34     1    15    1
    35     2    16    1
@<TRIPOS>SUBSTRUCTURE
     1 lig         1 TEMP              0 ****  ****    0 ROOT


########## Name:		ligand
########## HA_RMSDs:		5.8630
########## HA_RMSDh:		5.2691
########## HA_RMSDm:		3.7872
########## Cluster Size:	1
##########    Grid Score:           -3.507557
##########      Grid_vdw:           -3.820078
##########       Grid_es:            0.312521
##########    Int_energy:            2.333812

@<TRIPOS>MOLECULE
ligand
 33 35 1 0 0
SMALL
No Charge or Current Charge


@<TRIPOS>ATOM
      1 H1         16.5765   10.2004   19.6087 H       1  lig         0.0618
      2 H2         14.2560   10.8556   19.1543 H       1  lig         0.0618
      3 H3         18.2768   11.8855   20.3046 H       1  lig         0.0624
      4 H4         13.4893   13.2016   19.3330 H       1  lig         0.0638
      5 H5         20.3475   16.3483   21.4877 H       1  lig         0.0618
      6 H6         18.8082   18.2524   21.2582 H       1  lig         0.0618
      7 H7         19.5833   14.0375   20.9554 H       1  lig         0.0624
      8 H8         16.4184   17.9640   20.7248 H       1  lig         0.0638
      9 H9         12.2820   15.7320   17.9488 H       1  lig         0.0379
     10 H10        12.0103   17.3913   18.4052 H       1  lig         0.0379
     11 H11        14.5105   17.7473   18.5350 H       1  lig         0.0288
     12 H12        14.7683   16.1647   17.8344 H       1  lig         0.0288
     13 H13        13.2885   15.4301   20.0138 H       1  lig         0.0492
     14 H14        14.0914   16.8647   20.6485 H       1  lig         0.0492
     15 C1         16.2915   11.2443   19.7045 C.ar    1  lig        -0.0611
     16 C2         14.9680   11.6247   19.4393 C.ar    1  lig        -0.0598
     17 C3         17.2531   12.1839   20.0949 C.ar    1  lig        -0.0520
     18 C4         14.5253   12.9486   19.5410 C.ar    1  lig        -0.0376
     19 C5         16.8248   13.5080   20.1940 C.ar    1  lig         0.0076
     20 C6         15.4403   13.9392   19.9159 C.ar    1  lig         0.0501
     21 C7         19.3043   16.1692   21.2356 C.ar    1  lig        -0.0611
     22 C8         18.4148   17.2545   21.1713 C.ar    1  lig        -0.0598
     23 C9         18.8871   14.8680   20.9224 C.ar    1  lig        -0.0520
     24 C10        17.0669   17.0959   20.8059 C.ar    1  lig        -0.0376
     25 C11        17.5550   14.7042   20.5659 C.ar    1  lig         0.0076
     26 C12        16.5894   15.8233   20.4879 C.ar    1  lig         0.0501
     27 C13        12.7214   17.1003   16.4019 C.2     1  lig         0.3561
     28 C14        12.6982   16.7371   17.8708 C.3     1  lig         0.0508
     29 C15        14.1079   16.7343   18.4934 C.3     1  lig        -0.0247
     30 C16        14.1566   16.0817   19.8871 C.3     1  lig         0.0244
     31 N1         15.3774   15.2929   20.1138 N.pl3   1  lig        -0.3398
     32 O1         11.7102   16.7686   15.6052 O.co2   1  lig        -0.2464
     33 O2         13.6681   17.7000   15.9132 O.co2   1  lig        -0.2464
@<TRIPOS>BOND
     1    27    33    1
     2    27    32    1
     3    27    28    1
     4    28    29    1
     5     9    28    1
     6    10    28    1
     7    29    30    1
     8    11    29    1
     9    12    29    1
    10    30    31    1
    11    13    30    1
    12    14    30    1
    13    26    31    1
    14    20    31    1
    15    24    26   ar
    16    25    26   ar
    17    22    24   ar
    18     8    24    1
    19    23    25   ar
    20    19    25    1
    21    21    23   ar
    22     7    23    1
    23    21    22   ar
    24     5    21    1
    25     6    22    1
    26    19    20   ar
    27    17    19   ar
    28    18    20   ar
    29    16    18   ar
    30     4    18    1
    31    15    17   ar
    32     3    17    1
    33    15    16   ar
    34     1    15    1
    35     2    16    1
@<TRIPOS>SUBSTRUCTURE
     1 lig         1 TEMP              0 ****  ****    0 ROOT


########## Name:		ligand
########## HA_RMSDs:		16.2632
########## HA_RMSDh:		16.2324
########## HA_RMSDm:		13.9689
########## Cluster Size:	1
##########    Grid Score:           -3.168003
##########      Grid_vdw:           -3.912884
##########       Grid_es:            0.744881
##########    Int_energy:            7.595999

@<TRIPOS>MOLECULE
ligand
 33 35 1 0 0
SMALL
No Charge or Current Charge


@<TRIPOS>ATOM
      1 H1         29.1117   10.5698    1.7257 H       1  lig         0.0618
      2 H2         29.8182   10.8700    4.0562 H       1  lig         0.0618
      3 H3         26.7135   10.7634    1.0729 H       1  lig         0.0624
      4 H4         28.2061   11.3491    5.8715 H       1  lig         0.0638
      5 H5         21.7087   11.3946    1.4711 H       1  lig         0.0618
      6 H6         20.9254   11.7086    3.7810 H       1  lig         0.0618
      7 H7         24.1301   11.0498    0.9965 H       1  lig         0.0624
      8 H8         22.4763   11.9251    5.6854 H       1  lig         0.0638
      9 H9         25.2361   15.1895    7.3561 H       1  lig         0.0379
     10 H10        24.9147   14.5506    5.7675 H       1  lig         0.0379
     11 H11        26.1117   13.1373    8.2239 H       1  lig         0.0288
     12 H12        26.8137   13.3263    6.6322 H       1  lig         0.0288
     13 H13        24.3303   11.6272    7.0887 H       1  lig         0.0492
     14 H14        25.9691   10.9857    7.1807 H       1  lig         0.0492
     15 C1         28.3631   10.7813    2.4841 C.ar    1  lig        -0.0611
     16 C2         28.7612   10.9469    3.8185 C.ar    1  lig        -0.0598
     17 C3         27.0186   10.8874    2.1086 C.ar    1  lig        -0.0520
     18 C4         27.8565   11.2213    4.8506 C.ar    1  lig        -0.0376
     19 C5         26.1066   11.1548    3.1300 C.ar    1  lig         0.0076
     20 C6         26.4951   11.3285    4.5438 C.ar    1  lig         0.0501
     21 C7         22.4334   11.4692    2.2793 C.ar    1  lig        -0.0611
     22 C8         21.9839   11.7150    3.5873 C.ar    1  lig        -0.0598
     23 C9         23.7920   11.2581    2.0053 C.ar    1  lig        -0.0520
     24 C10        22.8641   11.7759    4.6814 C.ar    1  lig        -0.0376
     25 C11        24.6672   11.3224    3.0815 C.ar    1  lig         0.0076
     26 C12        24.2304   11.5797    4.4722 C.ar    1  lig         0.0501
     27 C13        23.4912   14.0030    7.2766 C.2     1  lig         0.3561
     28 C14        24.9063   14.2950    6.8264 C.3     1  lig         0.0508
     29 C15        25.8739   13.1426    7.1592 C.3     1  lig        -0.0247
     30 C16        25.3505   11.7625    6.7211 C.3     1  lig         0.0244
     31 N1         25.3559   11.5788    5.2616 N.pl3   1  lig        -0.3398
     32 O1         22.4526   14.5148    6.6235 O.co2   1  lig        -0.2464
     33 O2         23.2698   13.2973    8.2499 O.co2   1  lig        -0.2464
@<TRIPOS>BOND
     1    27    33    1
     2    27    32    1
     3    27    28    1
     4    28    29    1
     5     9    28    1
     6    10    28    1
     7    29    30    1
     8    11    29    1
     9    12    29    1
    10    30    31    1
    11    13    30    1
    12    14    30    1
    13    26    31    1
    14    20    31    1
    15    24    26   ar
    16    25    26   ar
    17    22    24   ar
    18     8    24    1
    19    23    25   ar
    20    19    25    1
    21    21    23   ar
    22     7    23    1
    23    21    22   ar
    24     5    21    1
    25     6    22    1
    26    19    20   ar
    27    17    19   ar
    28    18    20   ar
    29    16    18   ar
    30     4    18    1
    31    15    17   ar
    32     3    17    1
    33    15    16   ar
    34     1    15    1
    35     2    16    1
@<TRIPOS>SUBSTRUCTURE
     1 lig         1 TEMP              0 ****  ****    0 ROOT


########## Name:		ligand
########## HA_RMSDs:		17.3923
########## HA_RMSDh:		16.9804
########## HA_RMSDm:		14.4412
########## Cluster Size:	1
##########    Grid Score:           -2.222482
##########      Grid_vdw:           -2.373034
##########       Grid_es:            0.150551
##########    Int_energy:            9.476084

@<TRIPOS>MOLECULE
ligand
 33 35 1 0 0
SMALL
No Charge or Current Charge


@<TRIPOS>ATOM
      1 H1         16.3900   34.5035   10.0930 H       1  lig         0.0618
      2 H2         15.8066   32.8764    8.3515 H       1  lig         0.0618
      3 H3         18.5644   34.3677   11.3047 H       1  lig         0.0624
      4 H4         17.3142   31.0161    7.7269 H       1  lig         0.0638
      5 H5         23.1141   32.6835   12.7431 H       1  lig         0.0618
      6 H6         23.8018   30.6004   11.6315 H       1  lig         0.0618
      7 H7         20.9093   33.7214   12.2241 H       1  lig         0.0624
      8 H8         22.4850   29.5719    9.8185 H       1  lig         0.0638
      9 H9         20.6617   30.5815    4.9801 H       1  lig         0.0379
     10 H10        19.2172   30.8442    5.9180 H       1  lig         0.0379
     11 H11        21.8323   29.9569    7.2727 H       1  lig         0.0288
     12 H12        20.8494   28.7893    6.4168 H       1  lig         0.0288
     13 H13        20.2289   28.6726    8.7467 H       1  lig         0.0492
     14 H14        18.8797   29.3520    7.8393 H       1  lig         0.0492
     15 C1         17.0894   33.7069    9.8554 C.ar    1  lig        -0.0611
     16 C2         16.7575   32.7706    8.8656 C.ar    1  lig        -0.0598
     17 C3         18.3078   33.6378   10.5415 C.ar    1  lig        -0.0520
     18 C4         17.6056   31.7175    8.5040 C.ar    1  lig        -0.0376
     19 C5         19.1590   32.5885   10.1937 C.ar    1  lig         0.0076
     20 C6         18.8347   31.5850    9.1604 C.ar    1  lig         0.0501
     21 C7         22.4897   32.2612   11.9584 C.ar    1  lig        -0.0611
     22 C8         22.9200   31.1081   11.2811 C.ar    1  lig        -0.0598
     23 C9         21.2439   32.8427   11.6843 C.ar    1  lig        -0.0520
     24 C10        22.1391   30.4872   10.2911 C.ar    1  lig        -0.0376
     25 C11        20.4701   32.2368   10.7032 C.ar    1  lig         0.0076
     26 C12        20.8907   31.0224    9.9688 C.ar    1  lig         0.0501
     27 C13        20.8311   32.1967    6.3296 C.2     1  lig         0.3561
     28 C14        20.3044   30.8211    5.9824 C.3     1  lig         0.0508
     29 C15        20.8113   29.7394    6.9559 C.3     1  lig        -0.0247
     30 C16        19.9000   29.5486    8.1821 C.3     1  lig         0.0244
     31 N1         19.8880   30.7134    9.0804 N.pl3   1  lig        -0.3398
     32 O1         20.7363   33.1984    5.4609 O.co2   1  lig        -0.2464
     33 O2         21.3589   32.4179    7.4099 O.co2   1  lig        -0.2464
@<TRIPOS>BOND
     1    27    33    1
     2    27    32    1
     3    27    28    1
     4    28    29    1
     5     9    28    1
     6    10    28    1
     7    29    30    1
     8    11    29    1
     9    12    29    1
    10    30    31    1
    11    13    30    1
    12    14    30    1
    13    26    31    1
    14    20    31    1
    15    24    26   ar
    16    25    26   ar
    17    22    24   ar
    18     8    24    1
    19    23    25   ar
    20    19    25    1
    21    21    23   ar
    22     7    23    1
    23    21    22   ar
    24     5    21    1
    25     6    22    1
    26    19    20   ar
    27    17    19   ar
    28    18    20   ar
    29    16    18   ar
    30     4    18    1
    31    15    17   ar
    32     3    17    1
    33    15    16   ar
    34     1    15    1
    35     2    16    1
@<TRIPOS>SUBSTRUCTURE
     1 lig         1 TEMP              0 ****  ****    0 ROOT


########## Name:		ligand
########## HA_RMSDs:		17.5146
########## HA_RMSDh:		17.5004
########## HA_RMSDm:		16.0380
########## Cluster Size:	1
##########    Grid Score:           -0.154878
##########      Grid_vdw:            1.582446
##########       Grid_es:           -1.737324
##########    Int_energy:            2.458773

@<TRIPOS>MOLECULE
ligand
 33 35 1 0 0
SMALL
No Charge or Current Charge


@<TRIPOS>ATOM
      1 H1         30.4615   34.6392   13.5713 H       1  lig         0.0618
      2 H2         30.0239   33.7456   15.8142 H       1  lig         0.0618
      3 H3         28.5912   35.1863   12.0165 H       1  lig         0.0624
      4 H4         27.7303   33.3171   16.6384 H       1  lig         0.0638
      5 H5         23.8882   35.6664   10.2119 H       1  lig         0.0618
      6 H6         22.1472   34.8317   11.7351 H       1  lig         0.0618
      7 H7         26.2924   35.5374   10.8530 H       1  lig         0.0624
      8 H8         22.6513   34.0523   14.0192 H       1  lig         0.0638
      9 H9         24.2877   31.2606   18.0381 H       1  lig         0.0379
     10 H10        22.7916   31.9197   17.4360 H       1  lig         0.0379
     11 H11        23.8945   31.6556   15.0355 H       1  lig         0.0288
     12 H12        25.3694   31.2858   15.9014 H       1  lig         0.0288
     13 H13        25.4192   33.4801   16.9729 H       1  lig         0.0492
     14 H14        23.8479   33.8929   16.2901 H       1  lig         0.0492
     15 C1         29.4349   34.4720   13.8848 C.ar    1  lig        -0.0611
     16 C2         29.1801   33.9550   15.1633 C.ar    1  lig        -0.0598
     17 C3         28.3909   34.7812   13.0049 C.ar    1  lig        -0.0520
     18 C4         27.8860   33.7128   15.6385 C.ar    1  lig        -0.0376
     19 C5         27.0965   34.5383   13.4654 C.ar    1  lig         0.0076
     20 C6         26.7976   33.9898   14.8032 C.ar    1  lig         0.0501
     21 C7         24.1644   35.3188   11.2054 C.ar    1  lig        -0.0611
     22 C8         23.1587   34.9057   12.0950 C.ar    1  lig        -0.0598
     23 C9         25.5202   35.2349   11.5514 C.ar    1  lig        -0.0520
     24 C10        23.4524   34.4028   13.3741 C.ar    1  lig        -0.0376
     25 C11        25.8165   34.7438   12.8161 C.ar    1  lig         0.0076
     26 C12        24.7842   34.2999   13.7797 C.ar    1  lig         0.0501
     27 C13        23.1544   29.8669   16.9282 C.2     1  lig         0.3561
     28 C14        23.6330   31.2827   17.1660 C.3     1  lig         0.0508
     29 C15        24.4288   31.8384   15.9689 C.3     1  lig        -0.0247
     30 C16        24.7700   33.3335   16.1060 C.3     1  lig         0.0244
     31 N1         25.4367   33.8858   14.9167 N.pl3   1  lig        -0.3398
     32 O1         23.0050   29.0220   17.9436 O.co2   1  lig        -0.2464
     33 O2         22.8998   29.4659   15.8017 O.co2   1  lig        -0.2464
@<TRIPOS>BOND
     1    27    33    1
     2    27    32    1
     3    27    28    1
     4    28    29    1
     5     9    28    1
     6    10    28    1
     7    29    30    1
     8    11    29    1
     9    12    29    1
    10    30    31    1
    11    13    30    1
    12    14    30    1
    13    26    31    1
    14    20    31    1
    15    24    26   ar
    16    25    26   ar
    17    22    24   ar
    18     8    24    1
    19    23    25   ar
    20    19    25    1
    21    21    23   ar
    22     7    23    1
    23    21    22   ar
    24     5    21    1
    25     6    22    1
    26    19    20   ar
    27    17    19   ar
    28    18    20   ar
    29    16    18   ar
    30     4    18    1
    31    15    17   ar
    32     3    17    1
    33    15    16   ar
    34     1    15    1
    35     2    16    1
@<TRIPOS>SUBSTRUCTURE
     1 lig         1 TEMP              0 ****  ****    0 ROOT

