
########## Name:		ligand
########## HA_RMSDs:		0.8711
########## HA_RMSDh:		0.1915
########## HA_RMSDm:		0.0523
########## Cluster Size:	129
##########    Grid Score:          -51.615746
##########      Grid_vdw:          -27.093746
##########       Grid_es:          -24.521999
##########    Int_energy:            1.259087

@<TRIPOS>MOLECULE
ligand
 24 24 1 0 0
SMALL
No Charge or Current Charge


@<TRIPOS>ATOM
      1 H1         18.7399   17.9415   19.5339 H       1  lig         0.1313
      2 H2         16.8914   18.4138   15.7133 H       1  lig         0.1473
      3 H3         18.0611   20.2143   20.1031 H       1  lig         0.1394
      4 H4         16.2483   20.7293   16.2626 H       1  lig         0.1574
      5 H5         19.0020   16.6835   16.4090 H       1  lig         0.1170
      6 H6         18.8265   16.1689   18.0557 H       1  lig         0.0678
      7 H7         16.4494   16.1884   16.1353 H       1  lig         0.0912
      8 H8         16.0069   16.1224   18.5332 H       1  lig         0.4249
      9 H9         15.6435   14.6380   17.8712 H       1  lig         0.4256
     10 H10        17.0683   14.8422   18.7183 H       1  lig         0.4835
     11 H11        16.2637   22.2143   17.8847 H       1  lig         0.4236
     12 C1         18.1995   18.5431   18.8057 C.ar    1  lig        -0.1098
     13 C2         17.1573   18.8265   16.6853 C.ar    1  lig        -0.0948
     14 C3         17.8135   19.8160   19.1242 C.ar    1  lig        -0.2079
     15 C4         16.7974   20.1273   16.9815 C.ar    1  lig        -0.1468
     16 C5         17.8781   18.0446   17.5806 C.ar    1  lig        -0.1510
     17 C6         17.1545   20.6191   18.2315 C.ar    1  lig         0.1263
     18 C7         17.6951   14.4831   16.1003 C.2     1  lig         0.9365
     19 C8         18.2814   16.6256   17.2274 C.3     1  lig        -0.0459
     20 C9         17.1413   15.6924   16.8185 C.3     1  lig        -0.0743
     21 N1         16.4186   15.3150   18.0325 N.4     1  lig        -0.8330
     22 O1         17.8732   13.4996   16.8155 O.co2   1  lig        -0.7110
     23 O2         17.9877   14.4770   14.8702 O.co2   1  lig        -0.8016
     24 O3         16.8132   21.7873   18.6058 O.3     1  lig        -0.4958
@<TRIPOS>BOND
     1    20    21    1
     2     8    21    1
     3     9    21    1
     4    10    21    1
     5    18    20    1
     6    19    20    1
     7     7    20    1
     8    18    23    1
     9    18    22    1
    10    16    19    1
    11     5    19    1
    12     6    19    1
    13    12    16   ar
    14    13    16   ar
    15    12    14   ar
    16     1    12    1
    17    13    15   ar
    18     2    13    1
    19    14    17   ar
    20     3    14    1
    21    15    17   ar
    22     4    15    1
    23    17    24    1
    24    11    24    1
@<TRIPOS>SUBSTRUCTURE
     1 lig         1 TEMP              0 ****  ****    0 ROOT


########## Name:		ligand
########## HA_RMSDs:		5.6203
########## HA_RMSDh:		5.3438
########## HA_RMSDm:		1.0316
########## Cluster Size:	9
##########    Grid Score:          -27.707167
##########      Grid_vdw:          -27.071259
##########       Grid_es:           -0.635909
##########    Int_energy:            5.281953

@<TRIPOS>MOLECULE
ligand
 24 24 1 0 0
SMALL
No Charge or Current Charge


@<TRIPOS>ATOM
      1 H1         16.1351   18.3030   16.1826 H       1  lig         0.1313
      2 H2         19.2003   16.1888   18.2736 H       1  lig         0.1473
      3 H3         16.1443   16.5580   14.4782 H       1  lig         0.1394
      4 H4         19.2513   14.4492   16.5278 H       1  lig         0.1574
      5 H5         17.1585   18.0245   19.2659 H       1  lig         0.1170
      6 H6         18.6854   18.6499   18.7323 H       1  lig         0.0678
      7 H7         15.9475   19.6075   17.7531 H       1  lig         0.0912
      8 H8         17.6603   19.6555   16.0169 H       1  lig         0.4249
      9 H9         17.3478   21.2131   16.5169 H       1  lig         0.4256
     10 H10        18.7223   20.4300   17.0521 H       1  lig         0.4835
     11 H11        16.9712   14.8387   13.7615 H       1  lig         0.4236
     12 C1         16.8269   17.4673   16.2677 C.ar    1  lig        -0.1098
     13 C2         18.5301   16.2688   17.4191 C.ar    1  lig        -0.0948
     14 C3         16.8306   16.4850   15.3160 C.ar    1  lig        -0.2079
     15 C4         18.5703   15.2917   16.4429 C.ar    1  lig        -0.1468
     16 C5         17.6825   17.3664   17.3215 C.ar    1  lig        -0.1510
     17 C6         17.7004   15.4282   15.3675 C.ar    1  lig         0.1263
     18 C7         17.0474   20.7228   19.1699 C.2     1  lig         0.9365
     19 C8         17.6690   18.4389   18.3942 C.3     1  lig        -0.0459
     20 C9         16.9983   19.7575   18.0077 C.3     1  lig        -0.0743
     21 N1         17.6981   20.2859   16.8374 N.4     1  lig        -0.8330
     22 O1         16.2032   21.6151   19.1306 O.co2   1  lig        -0.7110
     23 O2         17.9022   20.6517   20.0989 O.co2   1  lig        -0.8016
     24 O3         17.6335   14.5442   14.4534 O.3     1  lig        -0.4958
@<TRIPOS>BOND
     1    20    21    1
     2     8    21    1
     3     9    21    1
     4    10    21    1
     5    18    20    1
     6    19    20    1
     7     7    20    1
     8    18    23    1
     9    18    22    1
    10    16    19    1
    11     5    19    1
    12     6    19    1
    13    12    16   ar
    14    13    16   ar
    15    12    14   ar
    16     1    12    1
    17    13    15   ar
    18     2    13    1
    19    14    17   ar
    20     3    14    1
    21    15    17   ar
    22     4    15    1
    23    17    24    1
    24    11    24    1
@<TRIPOS>SUBSTRUCTURE
     1 lig         1 TEMP              0 ****  ****    0 ROOT


########## Name:		ligand
########## HA_RMSDs:		13.9114
########## HA_RMSDh:		13.8618
########## HA_RMSDm:		12.2939
########## Cluster Size:	55
##########    Grid Score:          -26.183460
##########      Grid_vdw:          -20.121634
##########       Grid_es:           -6.061826
##########    Int_energy:            3.416718

@<TRIPOS>MOLECULE
ligand
 24 24 1 0 0
SMALL
No Charge or Current Charge


@<TRIPOS>ATOM
      1 H1         25.2992    6.5641   12.0307 H       1  lig         0.1313
      2 H2         24.3326    6.7432   16.1865 H       1  lig         0.1473
      3 H3         27.1562    8.0935   12.4337 H       1  lig         0.1394
      4 H4         26.1753    8.3299   16.5909 H       1  lig         0.1574
      5 H5         23.9365    4.5997   13.9493 H       1  lig         0.1170
      6 H6         22.7895    5.7124   14.6228 H       1  lig         0.0678
      7 H7         23.5670    5.9467   11.6868 H       1  lig         0.0912
      8 H8         22.3212    7.7374   12.7782 H       1  lig         0.4249
      9 H9         21.3214    6.9585   11.6978 H       1  lig         0.4256
     10 H10        21.1842    6.6419   13.3318 H       1  lig         0.4835
     11 H11        27.9631    9.5462   13.7642 H       1  lig         0.4236
     12 C1         25.4763    6.9477   13.0336 C.ar    1  lig        -0.1098
     13 C2         24.9602    7.0575   15.3540 C.ar    1  lig        -0.0948
     14 C3         26.5198    7.8015   13.2630 C.ar    1  lig        -0.2079
     15 C4         25.9869    7.9517   15.5898 C.ar    1  lig        -0.1468
     16 C5         24.6869    6.5767   14.0786 C.ar    1  lig        -0.1510
     17 C6         26.7659    8.3298   14.5026 C.ar    1  lig         0.1263
     18 C7         22.1775    4.4187   12.1290 C.2     1  lig         0.9365
     19 C8         23.5416    5.6116   13.8379 C.3     1  lig        -0.0459
     20 C9         22.8494    5.7266   12.4794 C.3     1  lig        -0.0743
     21 N1         21.8855    6.8232   12.5630 N.4     1  lig        -0.8330
     22 O1         21.0425    4.5325   11.6714 O.co2   1  lig        -0.7110
     23 O2         22.7129    3.2885   12.3157 O.co2   1  lig        -0.8016
     24 O3         27.7660    9.1055   14.6422 O.3     1  lig        -0.4958
@<TRIPOS>BOND
     1    20    21    1
     2     8    21    1
     3     9    21    1
     4    10    21    1
     5    18    20    1
     6    19    20    1
     7     7    20    1
     8    18    23    1
     9    18    22    1
    10    16    19    1
    11     5    19    1
    12     6    19    1
    13    12    16   ar
    14    13    16   ar
    15    12    14   ar
    16     1    12    1
    17    13    15   ar
    18     2    13    1
    19    14    17   ar
    20     3    14    1
    21    15    17   ar
    22     4    15    1
    23    17    24    1
    24    11    24    1
@<TRIPOS>SUBSTRUCTURE
     1 lig         1 TEMP              0 ****  ****    0 ROOT


########## Name:		ligand
########## HA_RMSDs:		2.0861
########## HA_RMSDh:		1.6492
########## HA_RMSDm:		0.4106
########## Cluster Size:	3
##########    Grid Score:          -25.975105
##########      Grid_vdw:          -29.380489
##########       Grid_es:            3.405384
##########    Int_energy:            4.975646

@<TRIPOS>MOLECULE
ligand
 24 24 1 0 0
SMALL
No Charge or Current Charge


@<TRIPOS>ATOM
      1 H1         15.9664   19.4494   16.2478 H       1  lig         0.1313
      2 H2         18.3063   16.7284   18.5626 H       1  lig         0.1473
      3 H3         16.5649   21.2307   17.8031 H       1  lig         0.1394
      4 H4         18.8722   18.5124   20.1669 H       1  lig         0.1574
      5 H5         15.7292   16.5056   16.6087 H       1  lig         0.1170
      6 H6         16.6292   17.2661   15.3363 H       1  lig         0.0678
      7 H7         18.7035   15.9834   16.5756 H       1  lig         0.0912
      8 H8         18.0065   15.8348   14.2428 H       1  lig         0.4249
      9 H9         18.2848   14.3002   14.8269 H       1  lig         0.4256
     10 H10        16.7178   14.8548   14.6651 H       1  lig         0.4835
     11 H11        18.7833   20.7258   20.4142 H       1  lig         0.4236
     12 C1         16.5991   19.2290   17.1054 C.ar    1  lig        -0.1098
     13 C2         17.9139   17.7322   18.4067 C.ar    1  lig        -0.0948
     14 C3         16.9402   20.2270   17.9761 C.ar    1  lig        -0.2079
     15 C4         18.2321   18.7239   19.3147 C.ar    1  lig        -0.1468
     16 C5         17.0800   17.9740   17.3210 C.ar    1  lig        -0.1510
     17 C6         17.7124   19.9919   19.0826 C.ar    1  lig         0.1263
     18 C7         17.2579   14.6341   17.3175 C.2     1  lig         0.9365
     19 C8         16.7263   16.8659   16.3474 C.3     1  lig        -0.0459
     20 C9         17.6889   15.6783   16.3132 C.3     1  lig        -0.0743
     21 N1         17.6918   15.1477   14.9504 N.4     1  lig        -0.8330
     22 O1         17.6828   13.5026   17.0944 O.co2   1  lig        -0.7110
     23 O2         16.4955   14.8811   18.2956 O.co2   1  lig        -0.8016
     24 O3         18.0017   20.9748   19.8387 O.3     1  lig        -0.4958
@<TRIPOS>BOND
     1    20    21    1
     2     8    21    1
     3     9    21    1
     4    10    21    1
     5    18    20    1
     6    19    20    1
     7     7    20    1
     8    18    23    1
     9    18    22    1
    10    16    19    1
    11     5    19    1
    12     6    19    1
    13    12    16   ar
    14    13    16   ar
    15    12    14   ar
    16     1    12    1
    17    13    15   ar
    18     2    13    1
    19    14    17   ar
    20     3    14    1
    21    15    17   ar
    22     4    15    1
    23    17    24    1
    24    11    24    1
@<TRIPOS>SUBSTRUCTURE
     1 lig         1 TEMP              0 ****  ****    0 ROOT


########## Name:		ligand
########## HA_RMSDs:		13.9495
########## HA_RMSDh:		13.8859
########## HA_RMSDm:		11.4126
########## Cluster Size:	40
##########    Grid Score:          -25.803518
##########      Grid_vdw:          -20.379416
##########       Grid_es:           -5.424103
##########    Int_energy:            3.871536

@<TRIPOS>MOLECULE
ligand
 24 24 1 0 0
SMALL
No Charge or Current Charge


@<TRIPOS>ATOM
      1 H1         24.8847    8.8730   13.2890 H       1  lig         0.1313
      2 H2         25.4676    4.6482   13.5090 H       1  lig         0.1473
      3 H3         22.6309    8.4816   12.4422 H       1  lig         0.1394
      4 H4         23.2101    4.2462   12.6042 H       1  lig         0.1574
      5 H5         27.2304    6.0575   13.9986 H       1  lig         0.1170
      6 H6         27.2993    7.6340   13.2793 H       1  lig         0.0678
      7 H7         27.6042    7.2258   15.9532 H       1  lig         0.0912
      8 H8         25.3232    6.3864   16.1594 H       1  lig         0.4249
      9 H9         25.4499    7.8276   16.9843 H       1  lig         0.4256
     10 H10        24.7189    7.7924   15.4831 H       1  lig         0.4835
     11 H11        20.9608    6.4771   12.7535 H       1  lig         0.4236
     12 C1         24.5327    7.8544   13.1384 C.ar    1  lig        -0.1098
     13 C2         24.8328    5.4968   13.2587 C.ar    1  lig        -0.0948
     14 C3         23.2676    7.6322   12.6684 C.ar    1  lig        -0.2079
     15 C4         23.5712    5.2610   12.7468 C.ar    1  lig        -0.1468
     16 C5         25.3241    6.7859   13.4299 C.ar    1  lig        -0.1510
     17 C6         22.7904    6.3689   12.4389 C.ar    1  lig         0.1263
     18 C7         27.0647    9.1395   15.2406 C.2     1  lig         0.9365
     19 C8         26.7201    7.0225   13.9740 C.3     1  lig        -0.0459
     20 C9         26.7937    7.6575   15.3630 C.3     1  lig        -0.0743
     21 N1         25.5240    7.3950   16.0396 N.4     1  lig        -0.8330
     22 O1         26.0669    9.8516   15.3293 O.co2   1  lig        -0.7110
     23 O2         28.2143    9.6225   15.0309 O.co2   1  lig        -0.8016
     24 O3         21.5963    6.2407   12.0157 O.3     1  lig        -0.4958
@<TRIPOS>BOND
     1    20    21    1
     2     8    21    1
     3     9    21    1
     4    10    21    1
     5    18    20    1
     6    19    20    1
     7     7    20    1
     8    18    23    1
     9    18    22    1
    10    16    19    1
    11     5    19    1
    12     6    19    1
    13    12    16   ar
    14    13    16   ar
    15    12    14   ar
    16     1    12    1
    17    13    15   ar
    18     2    13    1
    19    14    17   ar
    20     3    14    1
    21    15    17   ar
    22     4    15    1
    23    17    24    1
    24    11    24    1
@<TRIPOS>SUBSTRUCTURE
     1 lig         1 TEMP              0 ****  ****    0 ROOT


########## Name:		ligand
########## HA_RMSDs:		12.4350
########## HA_RMSDh:		12.4151
########## HA_RMSDm:		10.8050
########## Cluster Size:	50
##########    Grid Score:          -25.264109
##########      Grid_vdw:          -19.679085
##########       Grid_es:           -5.585024
##########    Int_energy:            3.454361

@<TRIPOS>MOLECULE
ligand
 24 24 1 0 0
SMALL
No Charge or Current Charge


@<TRIPOS>ATOM
      1 H1          8.0561    9.6000   23.2051 H       1  lig         0.1313
      2 H2         12.2112    9.1648   22.3203 H       1  lig         0.1473
      3 H3          8.5265   11.7945   24.1607 H       1  lig         0.1394
      4 H4         12.7006   11.3589   23.3318 H       1  lig         0.1574
      5 H5         10.7143    7.2669   22.2349 H       1  lig         0.1170
      6 H6          9.0411    7.3642   22.6804 H       1  lig         0.0678
      7 H7          9.9770    7.1335   20.0728 H       1  lig         0.0912
      8 H8         10.7421    9.4481   20.1588 H       1  lig         0.4249
      9 H9          9.4609    9.3369   19.1006 H       1  lig         0.4256
     10 H10         9.2207    9.9589   20.6318 H       1  lig         0.4835
     11 H11        11.7135   12.9288   24.7060 H       1  lig         0.4236
     12 C1          9.0789    9.9707   23.2315 C.ar    1  lig        -0.1098
     13 C2         11.3975    9.7527   22.7422 C.ar    1  lig        -0.0948
     14 C3          9.3446   11.2029   23.7623 C.ar    1  lig        -0.2079
     15 C4         11.6829   10.9787   23.3120 C.ar    1  lig        -0.1468
     16 C5         10.1069    9.2365   22.7243 C.ar    1  lig        -0.1510
     17 C6         10.6186   11.6998   23.8404 C.ar    1  lig         0.1263
     18 C7          7.9520    7.5616   20.4935 C.2     1  lig         0.9365
     19 C8          9.8184    7.8789   22.1122 C.3     1  lig        -0.0459
     20 C9          9.4215    7.8859   20.6356 C.3     1  lig        -0.0743
     21 N1          9.7368    9.2084   20.0968 N.4     1  lig        -0.8330
     22 O1          7.3169    8.3547   19.8020 O.co2   1  lig        -0.7110
     23 O2          7.3981    6.5763   21.0603 O.co2   1  lig        -0.8016
     24 O3         10.7858   12.8620   24.3332 O.3     1  lig        -0.4958
@<TRIPOS>BOND
     1    20    21    1
     2     8    21    1
     3     9    21    1
     4    10    21    1
     5    18    20    1
     6    19    20    1
     7     7    20    1
     8    18    23    1
     9    18    22    1
    10    16    19    1
    11     5    19    1
    12     6    19    1
    13    12    16   ar
    14    13    16   ar
    15    12    14   ar
    16     1    12    1
    17    13    15   ar
    18     2    13    1
    19    14    17   ar
    20     3    14    1
    21    15    17   ar
    22     4    15    1
    23    17    24    1
    24    11    24    1
@<TRIPOS>SUBSTRUCTURE
     1 lig         1 TEMP              0 ****  ****    0 ROOT


########## Name:		ligand
########## HA_RMSDs:		14.2249
########## HA_RMSDh:		14.1802
########## HA_RMSDm:		11.9851
########## Cluster Size:	10
##########    Grid Score:          -24.814425
##########      Grid_vdw:          -19.327572
##########       Grid_es:           -5.486852
##########    Int_energy:            2.192413

@<TRIPOS>MOLECULE
ligand
 24 24 1 0 0
SMALL
No Charge or Current Charge


@<TRIPOS>ATOM
      1 H1         25.6350    4.6478   13.5179 H       1  lig         0.1313
      2 H2         24.5955    8.6989   12.6548 H       1  lig         0.1473
      3 H3         23.4032    3.9624   12.8109 H       1  lig         0.1394
      4 H4         22.3216    8.0189   11.9887 H       1  lig         0.1574
      5 H5         27.0628    6.3424   14.1757 H       1  lig         0.1170
      6 H6         27.2911    7.2267   12.7015 H       1  lig         0.0678
      7 H7         25.9016    9.1273   14.1025 H       1  lig         0.0912
      8 H8         28.0801    9.3279   13.0235 H       1  lig         0.4249
      9 H9         28.1677    9.9810   14.5530 H       1  lig         0.4256
     10 H10        28.8000    8.4630   14.2617 H       1  lig         0.4835
     11 H11        20.9558    5.5065   12.7977 H       1  lig         0.4236
     12 C1         24.9171    5.3973   13.1906 C.ar    1  lig        -0.1098
     13 C2         24.3181    7.6467   12.6965 C.ar    1  lig        -0.0948
     14 C3         23.6668    5.0151   12.7890 C.ar    1  lig        -0.2079
     15 C4         23.0393    7.2763   12.3266 C.ar    1  lig        -0.1468
     16 C5         25.2463    6.7175   13.1521 C.ar    1  lig        -0.1510
     17 C6         22.7222    5.9247   12.3936 C.ar    1  lig         0.1263
     18 C7         26.6131    8.1691   15.8450 C.2     1  lig         0.9365
     19 C8         26.6385    7.1481   13.5732 C.3     1  lig        -0.0459
     20 C9         26.7199    8.4540   14.3644 C.3     1  lig        -0.0743
     21 N1         27.9890    9.0986   14.0290 N.4     1  lig        -0.8330
     22 O1         27.4666    8.7213   16.5358 O.co2   1  lig        -0.7110
     23 O2         25.7422    7.4011   16.3456 O.co2   1  lig        -0.8016
     24 O3         21.5851    5.4919   12.0180 O.3     1  lig        -0.4958
@<TRIPOS>BOND
     1    20    21    1
     2     8    21    1
     3     9    21    1
     4    10    21    1
     5    18    20    1
     6    19    20    1
     7     7    20    1
     8    18    23    1
     9    18    22    1
    10    16    19    1
    11     5    19    1
    12     6    19    1
    13    12    16   ar
    14    13    16   ar
    15    12    14   ar
    16     1    12    1
    17    13    15   ar
    18     2    13    1
    19    14    17   ar
    20     3    14    1
    21    15    17   ar
    22     4    15    1
    23    17    24    1
    24    11    24    1
@<TRIPOS>SUBSTRUCTURE
     1 lig         1 TEMP              0 ****  ****    0 ROOT


########## Name:		ligand
########## HA_RMSDs:		15.1216
########## HA_RMSDh:		15.0749
########## HA_RMSDm:		12.0784
########## Cluster Size:	5
##########    Grid Score:          -24.488708
##########      Grid_vdw:          -19.773310
##########       Grid_es:           -4.715400
##########    Int_energy:            4.579727

@<TRIPOS>MOLECULE
ligand
 24 24 1 0 0
SMALL
No Charge or Current Charge


@<TRIPOS>ATOM
      1 H1         25.8436    6.5136   13.7748 H       1  lig         0.1313
      2 H2         22.6824    4.2300   12.0345 H       1  lig         0.1473
      3 H3         27.4383    5.2966   12.3870 H       1  lig         0.1394
      4 H4         24.2940    2.9604   10.6677 H       1  lig         0.1574
      5 H5         22.4467    5.4764   14.2432 H       1  lig         0.1170
      6 H6         23.6595    6.6133   14.7370 H       1  lig         0.0678
      7 H7         21.7168    7.8198   13.8166 H       1  lig         0.0912
      8 H8         20.9651    6.0156   12.3572 H       1  lig         0.4249
      9 H9         21.1393    7.4066   11.4582 H       1  lig         0.4256
     10 H10        22.3072    6.2155   11.3784 H       1  lig         0.4835
     11 H11        27.6327    3.1860   11.3594 H       1  lig         0.4236
     12 C1         25.4911    5.7338   13.1027 C.ar    1  lig        -0.1098
     13 C2         23.7451    4.4540   12.1146 C.ar    1  lig        -0.0948
     14 C3         26.3826    5.0533   12.3199 C.ar    1  lig        -0.2079
     15 C4         24.6409    3.7329   11.3486 C.ar    1  lig        -0.1468
     16 C5         24.1672    5.4320   13.0078 C.ar    1  lig        -0.1510
     17 C6         25.9887    4.0470   11.4784 C.ar    1  lig         0.1263
     18 C7         23.3867    8.3630   12.6430 C.2     1  lig         0.9365
     19 C8         23.1686    6.1977   13.8548 C.3     1  lig        -0.0459
     20 C9         22.4132    7.3194   13.1413 C.3     1  lig        -0.0743
     21 N1         21.6578    6.7180   12.0430 N.4     1  lig        -0.8330
     22 O1         23.1039    8.8463   11.5490 O.co2   1  lig        -0.7110
     23 O2         24.4300    8.6996   13.2731 O.co2   1  lig        -0.8016
     24 O3         26.8745    3.4698   10.7688 O.3     1  lig        -0.4958
@<TRIPOS>BOND
     1    20    21    1
     2     8    21    1
     3     9    21    1
     4    10    21    1
     5    18    20    1
     6    19    20    1
     7     7    20    1
     8    18    23    1
     9    18    22    1
    10    16    19    1
    11     5    19    1
    12     6    19    1
    13    12    16   ar
    14    13    16   ar
    15    12    14   ar
    16     1    12    1
    17    13    15   ar
    18     2    13    1
    19    14    17   ar
    20     3    14    1
    21    15    17   ar
    22     4    15    1
    23    17    24    1
    24    11    24    1
@<TRIPOS>SUBSTRUCTURE
     1 lig         1 TEMP              0 ****  ****    0 ROOT


########## Name:		ligand
########## HA_RMSDs:		13.4082
########## HA_RMSDh:		13.3387
########## HA_RMSDm:		11.2065
########## Cluster Size:	67
##########    Grid Score:          -24.344917
##########      Grid_vdw:          -19.013960
##########       Grid_es:           -5.330957
##########    Int_energy:            1.738373

@<TRIPOS>MOLECULE
ligand
 24 24 1 0 0
SMALL
No Charge or Current Charge


@<TRIPOS>ATOM
      1 H1          9.9716    7.4842   20.4975 H       1  lig         0.1313
      2 H2          8.2182    9.4092   23.8823 H       1  lig         0.1473
      3 H3          7.8051    6.4852   19.9888 H       1  lig         0.1394
      4 H4          6.0390    8.3611   23.4038 H       1  lig         0.1574
      5 H5         10.5622    9.4224   23.5968 H       1  lig         0.1170
      6 H6         11.3752    8.3901   22.4651 H       1  lig         0.0678
      7 H7         10.0772   10.9811   21.5153 H       1  lig         0.0912
      8 H8         10.7533    9.2965   19.8859 H       1  lig         0.4249
      9 H9         11.7746   10.6068   19.7703 H       1  lig         0.4256
     10 H10        12.2836    9.2252   20.5584 H       1  lig         0.4835
     11 H11         5.0244    6.9591   22.0355 H       1  lig         0.4236
     12 C1          9.1198    7.6801   21.1458 C.ar    1  lig        -0.1098
     13 C2          8.1200    8.7479   23.0228 C.ar    1  lig        -0.0948
     14 C3          7.9028    7.1252   20.8600 C.ar    1  lig        -0.2079
     15 C4          6.8958    8.1607   22.7663 C.ar    1  lig        -0.1468
     16 C5          9.2351    8.4899   22.2338 C.ar    1  lig        -0.1510
     17 C6          6.8093    7.3227   21.6608 C.ar    1  lig         0.1263
     18 C7         11.9772   11.1834   22.4152 C.2     1  lig         0.9365
     19 C8         10.5753    9.1287   22.5452 C.3     1  lig        -0.0459
     20 C9         10.9456   10.3450   21.6958 C.3     1  lig        -0.0743
     21 N1         11.4480    9.8548   20.4128 N.4     1  lig        -0.8330
     22 O1         13.1424   10.8532   22.2055 O.co2   1  lig        -0.7110
     23 O2         11.6815   12.1308   23.1987 O.co2   1  lig        -0.8016
     24 O3          5.7056    6.7861   21.3212 O.3     1  lig        -0.4958
@<TRIPOS>BOND
     1    20    21    1
     2     8    21    1
     3     9    21    1
     4    10    21    1
     5    18    20    1
     6    19    20    1
     7     7    20    1
     8    18    23    1
     9    18    22    1
    10    16    19    1
    11     5    19    1
    12     6    19    1
    13    12    16   ar
    14    13    16   ar
    15    12    14   ar
    16     1    12    1
    17    13    15   ar
    18     2    13    1
    19    14    17   ar
    20     3    14    1
    21    15    17   ar
    22     4    15    1
    23    17    24    1
    24    11    24    1
@<TRIPOS>SUBSTRUCTURE
     1 lig         1 TEMP              0 ****  ****    0 ROOT


########## Name:		ligand
########## HA_RMSDs:		13.2657
########## HA_RMSDh:		13.2140
########## HA_RMSDm:		11.1559
########## Cluster Size:	70
##########    Grid Score:          -23.890162
##########      Grid_vdw:          -17.839714
##########       Grid_es:           -6.050447
##########    Int_energy:            1.575989

@<TRIPOS>MOLECULE
ligand
 24 24 1 0 0
SMALL
No Charge or Current Charge


@<TRIPOS>ATOM
      1 H1          7.6104    9.0864   23.7942 H       1  lig         0.1313
      2 H2         11.2270   10.4790   22.0004 H       1  lig         0.1473
      3 H3          6.9217    8.1972   21.6296 H       1  lig         0.1394
      4 H4         10.5134    9.6290   19.7993 H       1  lig         0.1574
      5 H5          9.3915    9.8067   25.1442 H       1  lig         0.1170
      6 H6         10.9586   10.2152   24.5240 H       1  lig         0.0678
      7 H7          8.6046   12.1505   24.2933 H       1  lig         0.0912
      8 H8         10.5319   12.4841   22.8358 H       1  lig         0.4249
      9 H9         10.5093   13.6828   23.9918 H       1  lig         0.4256
     10 H10        11.5683   12.4007   24.1467 H       1  lig         0.4835
     11 H11         8.8668    8.5975   18.7635 H       1  lig         0.4236
     12 C1          8.2535    9.2173   22.9261 C.ar    1  lig        -0.1098
     13 C2         10.2645    9.9786   21.9068 C.ar    1  lig        -0.0948
     14 C3          7.8719    8.7154   21.7124 C.ar    1  lig        -0.2079
     15 C4          9.8709    9.5108   20.6676 C.ar    1  lig        -0.1468
     16 C5          9.4504    9.8577   23.0271 C.ar    1  lig        -0.1510
     17 C6          8.6360    8.8781   20.5873 C.ar    1  lig         0.1263
     18 C7          9.6957   12.1807   26.1015 C.2     1  lig         0.9365
     19 C8          9.8926   10.3969   24.3742 C.3     1  lig        -0.0459
     20 C9          9.6091   11.8787   24.6229 C.3     1  lig        -0.0743
     21 N1         10.5845   12.6527   23.8560 N.4     1  lig        -0.8330
     22 O1         10.7330   12.7403   26.4501 O.co2   1  lig        -0.7110
     23 O2          8.7971   11.8609   26.9316 O.co2   1  lig        -0.8016
     24 O3          8.2225    8.3686   19.4960 O.3     1  lig        -0.4958
@<TRIPOS>BOND
     1    20    21    1
     2     8    21    1
     3     9    21    1
     4    10    21    1
     5    18    20    1
     6    19    20    1
     7     7    20    1
     8    18    23    1
     9    18    22    1
    10    16    19    1
    11     5    19    1
    12     6    19    1
    13    12    16   ar
    14    13    16   ar
    15    12    14   ar
    16     1    12    1
    17    13    15   ar
    18     2    13    1
    19    14    17   ar
    20     3    14    1
    21    15    17   ar
    22     4    15    1
    23    17    24    1
    24    11    24    1
@<TRIPOS>SUBSTRUCTURE
     1 lig         1 TEMP              0 ****  ****    0 ROOT


########## Name:		ligand
########## HA_RMSDs:		13.3716
########## HA_RMSDh:		13.2866
########## HA_RMSDm:		11.2884
########## Cluster Size:	39
##########    Grid Score:          -23.870712
##########      Grid_vdw:          -19.000416
##########       Grid_es:           -4.870296
##########    Int_energy:            2.401770

@<TRIPOS>MOLECULE
ligand
 24 24 1 0 0
SMALL
No Charge or Current Charge


@<TRIPOS>ATOM
      1 H1          9.3710    8.5417   20.3838 H       1  lig         0.1313
      2 H2          9.7990    8.9706   24.6111 H       1  lig         0.1473
      3 H3         11.1932   10.1336   20.0742 H       1  lig         0.1394
      4 H4         11.6057   10.6194   24.3044 H       1  lig         0.1574
      5 H5          8.6250    6.7513   22.2033 H       1  lig         0.1170
      6 H6          8.2549    7.3987   23.7689 H       1  lig         0.0678
      7 H7          6.8848    9.1926   22.1490 H       1  lig         0.0912
      8 H8          6.0927    8.0021   24.1252 H       1  lig         0.4249
      9 H9          4.9797    7.8236   22.8993 H       1  lig         0.4256
     10 H10         6.0211    6.5698   23.2635 H       1  lig         0.4835
     11 H11        12.4146   11.5686   20.9389 H       1  lig         0.4236
     12 C1          9.8479    8.9936   21.2514 C.ar    1  lig        -0.1098
     13 C2         10.1087    9.2434   23.6034 C.ar    1  lig        -0.0948
     14 C3         10.8731    9.8827   21.0806 C.ar    1  lig        -0.2079
     15 C4         11.1184   10.1728   23.4420 C.ar    1  lig        -0.1468
     16 C5          9.4566    8.6747   22.5155 C.ar    1  lig        -0.1510
     17 C6         11.4860   10.4958   22.1410 C.ar    1  lig         0.1263
     18 C7          6.7140    7.5531   20.8286 C.2     1  lig         0.9365
     19 C8          8.3362    7.6717   22.7150 C.3     1  lig        -0.0459
     20 C9          6.9582    8.1055   22.2142 C.3     1  lig        -0.0743
     21 N1          5.9645    7.6206   23.1713 N.4     1  lig        -0.8330
     22 O1          6.3362    6.3838   20.8025 O.co2   1  lig        -0.7110
     23 O2          6.9091    8.2163   19.7698 O.co2   1  lig        -0.8016
     24 O3         12.4442   11.3002   21.9039 O.3     1  lig        -0.4958
@<TRIPOS>BOND
     1    20    21    1
     2     8    21    1
     3     9    21    1
     4    10    21    1
     5    18    20    1
     6    19    20    1
     7     7    20    1
     8    18    23    1
     9    18    22    1
    10    16    19    1
    11     5    19    1
    12     6    19    1
    13    12    16   ar
    14    13    16   ar
    15    12    14   ar
    16     1    12    1
    17    13    15   ar
    18     2    13    1
    19    14    17   ar
    20     3    14    1
    21    15    17   ar
    22     4    15    1
    23    17    24    1
    24    11    24    1
@<TRIPOS>SUBSTRUCTURE
     1 lig         1 TEMP              0 ****  ****    0 ROOT


########## Name:		ligand
########## HA_RMSDs:		12.0852
########## HA_RMSDh:		12.0208
########## HA_RMSDm:		10.2734
########## Cluster Size:	13
##########    Grid Score:          -23.583740
##########      Grid_vdw:          -21.598288
##########       Grid_es:           -1.985452
##########    Int_energy:            2.207706

@<TRIPOS>MOLECULE
ligand
 24 24 1 0 0
SMALL
No Charge or Current Charge


@<TRIPOS>ATOM
      1 H1         12.2802    9.3061   20.4358 H       1  lig         0.1313
      2 H2          9.0019   10.6450   22.8226 H       1  lig         0.1473
      3 H3         13.8017   10.5097   21.9147 H       1  lig         0.1394
      4 H4         10.5294   11.9062   24.2900 H       1  lig         0.1574
      5 H5          8.9773    9.8934   20.0993 H       1  lig         0.1170
      6 H6         10.1514    8.6458   19.8306 H       1  lig         0.0678
      7 H7          8.2057    8.5806   22.1914 H       1  lig         0.0912
      8 H8         10.2606    7.2827   22.3993 H       1  lig         0.4249
      9 H9          8.9790    6.2421   22.1801 H       1  lig         0.4256
     10 H10         9.9988    6.5830   20.9023 H       1  lig         0.4835
     11 H11        14.0444   11.5219   23.6950 H       1  lig         0.4236
     12 C1         11.8827    9.8764   21.2730 C.ar    1  lig        -0.1098
     13 C2         10.0720   10.6289   22.6212 C.ar    1  lig        -0.0948
     14 C3         12.7340   10.5480   22.1066 C.ar    1  lig        -0.2079
     15 C4         10.9193   11.3437   23.4461 C.ar    1  lig        -0.1468
     16 C5         10.5455    9.9194   21.5236 C.ar    1  lig        -0.1510
     17 C6         12.2782   11.2993   23.1573 C.ar    1  lig         0.1263
     18 C7          7.5852    7.7089   20.3704 C.2     1  lig         0.9365
     19 C8          9.5957    9.1582   20.6183 C.3     1  lig        -0.0459
     20 C9          8.6841    8.1454   21.3120 C.3     1  lig        -0.0743
     21 N1          9.5132    7.0170   21.7339 N.4     1  lig        -0.8330
     22 O1          7.2572    6.5292   20.4778 O.co2   1  lig        -0.7110
     23 O2          7.0576    8.4740   19.5130 O.co2   1  lig        -0.8016
     24 O3         13.1324   11.8833   23.8993 O.3     1  lig        -0.4958
@<TRIPOS>BOND
     1    20    21    1
     2     8    21    1
     3     9    21    1
     4    10    21    1
     5    18    20    1
     6    19    20    1
     7     7    20    1
     8    18    23    1
     9    18    22    1
    10    16    19    1
    11     5    19    1
    12     6    19    1
    13    12    16   ar
    14    13    16   ar
    15    12    14   ar
    16     1    12    1
    17    13    15   ar
    18     2    13    1
    19    14    17   ar
    20     3    14    1
    21    15    17   ar
    22     4    15    1
    23    17    24    1
    24    11    24    1
@<TRIPOS>SUBSTRUCTURE
     1 lig         1 TEMP              0 ****  ****    0 ROOT


########## Name:		ligand
########## HA_RMSDs:		14.0351
########## HA_RMSDh:		14.0019
########## HA_RMSDm:		11.6924
########## Cluster Size:	10
##########    Grid Score:          -23.571907
##########      Grid_vdw:          -14.275009
##########       Grid_es:           -9.296899
##########    Int_energy:            2.445198

@<TRIPOS>MOLECULE
ligand
 24 24 1 0 0
SMALL
No Charge or Current Charge


@<TRIPOS>ATOM
      1 H1         27.0511    5.5444   12.9573 H       1  lig         0.1313
      2 H2         25.0703    7.7434   16.0359 H       1  lig         0.1473
      3 H3         28.8496    7.1920   12.9875 H       1  lig         0.1394
      4 H4         26.8587    9.4399   16.0344 H       1  lig         0.1574
      5 H5         25.0548    4.7936   13.6969 H       1  lig         0.1170
      6 H6         24.8338    4.9549   15.4093 H       1  lig         0.0678
      7 H7         23.1170    6.7443   15.0497 H       1  lig         0.0912
      8 H8         22.4923    4.3871   15.1070 H       1  lig         0.4249
      9 H9         21.5081    5.1853   14.0263 H       1  lig         0.4256
     10 H10        22.7706    4.2484   13.4631 H       1  lig         0.4835
     11 H11        29.6395    8.8785   13.8107 H       1  lig         0.4236
     12 C1         26.9935    6.3959   13.6324 C.ar    1  lig        -0.1098
     13 C2         25.9109    7.6338   15.3524 C.ar    1  lig        -0.0948
     14 C3         28.0029    7.3185   13.6548 C.ar    1  lig        -0.2079
     15 C4         26.9054    8.5931   15.3551 C.ar    1  lig        -0.1468
     16 C5         25.9385    6.5535   14.4779 C.ar    1  lig        -0.1510
     17 C6         27.9618    8.4194   14.4687 C.ar    1  lig         0.1263
     18 C7         23.3665    6.8489   12.9551 C.2     1  lig         0.9365
     19 C8         24.8257    5.5226   14.4769 C.3     1  lig        -0.0459
     20 C9         23.4153    6.0667   14.2476 C.3     1  lig        -0.0743
     21 N1         22.4979    4.9281   14.2243 N.4     1  lig        -0.8330
     22 O1         22.9306    6.2211   11.9925 O.co2   1  lig        -0.7110
     23 O2         23.7682    8.0430   12.8478 O.co2   1  lig        -0.8016
     24 O3         28.9466    9.2262   14.4457 O.3     1  lig        -0.4958
@<TRIPOS>BOND
     1    20    21    1
     2     8    21    1
     3     9    21    1
     4    10    21    1
     5    18    20    1
     6    19    20    1
     7     7    20    1
     8    18    23    1
     9    18    22    1
    10    16    19    1
    11     5    19    1
    12     6    19    1
    13    12    16   ar
    14    13    16   ar
    15    12    14   ar
    16     1    12    1
    17    13    15   ar
    18     2    13    1
    19    14    17   ar
    20     3    14    1
    21    15    17   ar
    22     4    15    1
    23    17    24    1
    24    11    24    1
@<TRIPOS>SUBSTRUCTURE
     1 lig         1 TEMP              0 ****  ****    0 ROOT


########## Name:		ligand
########## HA_RMSDs:		13.6900
########## HA_RMSDh:		13.6065
########## HA_RMSDm:		11.0817
########## Cluster Size:	12
##########    Grid Score:          -23.417442
##########      Grid_vdw:          -18.873003
##########       Grid_es:           -4.544439
##########    Int_energy:            2.363986

@<TRIPOS>MOLECULE
ligand
 24 24 1 0 0
SMALL
No Charge or Current Charge


@<TRIPOS>ATOM
      1 H1          8.7248    9.6609   19.8420 H       1  lig         0.1313
      2 H2         10.2738    6.5209   22.2870 H       1  lig         0.1473
      3 H3          6.6205    8.4393   19.6691 H       1  lig         0.1394
      4 H4          8.1682    5.2571   22.0729 H       1  lig         0.1574
      5 H5         11.6350    8.2935   21.7478 H       1  lig         0.1170
      6 H6         11.4054    9.0440   20.2015 H       1  lig         0.0678
      7 H7         10.0258   10.8771   21.4463 H       1  lig         0.0912
      8 H8         12.2973   11.1458   20.5989 H       1  lig         0.4249
      9 H9         12.1662   11.9279   22.0634 H       1  lig         0.4256
     10 H10        12.9224   10.4412   21.9816 H       1  lig         0.4835
     11 H11         6.1599    5.3296   21.1796 H       1  lig         0.4236
     12 C1          8.6185    8.6946   20.3310 C.ar    1  lig        -0.1098
     13 C2          9.4583    6.9363   21.6968 C.ar    1  lig        -0.0948
     14 C3          7.4380    8.0100   20.2397 C.ar    1  lig        -0.2079
     15 C4          8.2842    6.2175   21.5781 C.ar    1  lig        -0.1468
     16 C5          9.6374    8.1567   21.0558 C.ar    1  lig        -0.1510
     17 C6          7.2664    6.7796   20.8166 C.ar    1  lig         0.1263
     18 C7         10.5902   10.1207   23.3358 C.2     1  lig         0.9365
     19 C8         10.9422    8.9198   21.1822 C.3     1  lig        -0.0459
     20 C9         10.8491   10.2892   21.8562 C.3     1  lig        -0.0743
     21 N1         12.1053   10.9945   21.6050 N.4     1  lig        -0.8330
     22 O1          9.9776   11.0497   23.8576 O.co2   1  lig        -0.7110
     23 O2         10.9928    9.1261   24.0048 O.co2   1  lig        -0.8016
     24 O3          6.1332    6.2102   20.7020 O.3     1  lig        -0.4958
@<TRIPOS>BOND
     1    20    21    1
     2     8    21    1
     3     9    21    1
     4    10    21    1
     5    18    20    1
     6    19    20    1
     7     7    20    1
     8    18    23    1
     9    18    22    1
    10    16    19    1
    11     5    19    1
    12     6    19    1
    13    12    16   ar
    14    13    16   ar
    15    12    14   ar
    16     1    12    1
    17    13    15   ar
    18     2    13    1
    19    14    17   ar
    20     3    14    1
    21    15    17   ar
    22     4    15    1
    23    17    24    1
    24    11    24    1
@<TRIPOS>SUBSTRUCTURE
     1 lig         1 TEMP              0 ****  ****    0 ROOT


########## Name:		ligand
########## HA_RMSDs:		14.0236
########## HA_RMSDh:		13.9862
########## HA_RMSDm:		11.7603
########## Cluster Size:	5
##########    Grid Score:          -23.363152
##########      Grid_vdw:          -13.764013
##########       Grid_es:           -9.599137
##########    Int_energy:            2.931380

@<TRIPOS>MOLECULE
ligand
 24 24 1 0 0
SMALL
No Charge or Current Charge


@<TRIPOS>ATOM
      1 H1         26.1728    6.6291   13.8183 H       1  lig         0.1313
      2 H2         22.6836    4.9205   15.5912 H       1  lig         0.1473
      3 H3         27.3601    6.2991   15.9235 H       1  lig         0.1394
      4 H4         23.8623    4.6325   17.7370 H       1  lig         0.1574
      5 H5         24.3259    5.8312   12.4624 H       1  lig         0.1170
      6 H6         22.8520    5.2264   13.1473 H       1  lig         0.0678
      7 H7         22.8962    7.9246   14.0012 H       1  lig         0.0912
      8 H8         21.0055    6.5911   13.2284 H       1  lig         0.4249
      9 H9         21.0669    8.0071   12.3540 H       1  lig         0.4256
     10 H10        21.6152    6.5855   11.6703 H       1  lig         0.4835
     11 H11        25.7727    5.0926   18.7726 H       1  lig         0.4236
     12 C1         25.6529    6.1958   14.6705 C.ar    1  lig        -0.1098
     13 C2         23.7227    5.2347   15.6770 C.ar    1  lig        -0.0948
     14 C3         26.3177    6.0052   15.8505 C.ar    1  lig        -0.2079
     15 C4         24.3729    5.0744   16.8857 C.ar    1  lig        -0.1468
     16 C5         24.3487    5.8167   14.5807 C.ar    1  lig        -0.1510
     17 C6         25.6981    5.4874   16.9569 C.ar    1  lig         0.1263
     18 C7         23.7625    8.1935   12.0938 C.2     1  lig         0.9365
     19 C8         23.6101    6.0025   13.2689 C.3     1  lig        -0.0459
     20 C9         22.9506    7.3668   13.0645 C.3     1  lig        -0.0743
     21 N1         21.5932    7.1351   12.5722 N.4     1  lig        -0.8330
     22 O1         23.1022    8.9624   11.3987 O.co2   1  lig        -0.7110
     23 O2         25.0168    8.0912   11.9711 O.co2   1  lig        -0.8016
     24 O3         26.3867    5.3243   18.0154 O.3     1  lig        -0.4958
@<TRIPOS>BOND
     1    20    21    1
     2     8    21    1
     3     9    21    1
     4    10    21    1
     5    18    20    1
     6    19    20    1
     7     7    20    1
     8    18    23    1
     9    18    22    1
    10    16    19    1
    11     5    19    1
    12     6    19    1
    13    12    16   ar
    14    13    16   ar
    15    12    14   ar
    16     1    12    1
    17    13    15   ar
    18     2    13    1
    19    14    17   ar
    20     3    14    1
    21    15    17   ar
    22     4    15    1
    23    17    24    1
    24    11    24    1
@<TRIPOS>SUBSTRUCTURE
     1 lig         1 TEMP              0 ****  ****    0 ROOT


########## Name:		ligand
########## HA_RMSDs:		14.1225
########## HA_RMSDh:		14.0239
########## HA_RMSDm:		11.8952
########## Cluster Size:	9
##########    Grid Score:          -23.265652
##########      Grid_vdw:          -18.108494
##########       Grid_es:           -5.157158
##########    Int_energy:            4.929786

@<TRIPOS>MOLECULE
ligand
 24 24 1 0 0
SMALL
No Charge or Current Charge


@<TRIPOS>ATOM
      1 H1         24.2314    8.8953   12.5646 H       1  lig         0.1313
      2 H2         25.3292    6.5744   15.9771 H       1  lig         0.1473
      3 H3         22.7471    7.0920   11.8607 H       1  lig         0.1394
      4 H4         23.8709    4.7272   15.2437 H       1  lig         0.1574
      5 H5         25.3692    9.8992   14.3945 H       1  lig         0.1170
      6 H6         25.7907    9.0441   15.8431 H       1  lig         0.0678
      7 H7         27.6268    9.8482   13.9662 H       1  lig         0.0912
      8 H8         26.7180    8.2691   12.3443 H       1  lig         0.4249
      9 H9         28.2530    7.7862   12.7734 H       1  lig         0.4256
     10 H10        26.9263    7.0058   13.4213 H       1  lig         0.4835
     11 H11        21.8444    4.6171   13.8146 H       1  lig         0.4236
     12 C1         24.1664    7.9853   13.1579 C.ar    1  lig        -0.1098
     13 C2         24.7584    6.6772   15.0555 C.ar    1  lig        -0.0948
     14 C3         23.3312    6.9749   12.7681 C.ar    1  lig        -0.2079
     15 C4         23.9482    5.6339   14.6499 C.ar    1  lig        -0.1468
     16 C5         24.8895    7.8378   14.3017 C.ar    1  lig        -0.1510
     17 C6         23.2356    5.8017   13.4685 C.ar    1  lig         0.1263
     18 C7         28.1347    8.3982   15.4155 C.2     1  lig         0.9365
     19 C8         25.8006    8.9629   14.7544 C.3     1  lig        -0.0459
     20 C9         27.2526    8.8732   14.2837 C.3     1  lig        -0.0743
     21 N1         27.2949    7.9564   13.1451 N.4     1  lig        -0.8330
     22 O1         29.1048    7.7307   15.0633 O.co2   1  lig        -0.7110
     23 O2         27.8910    8.6321   16.6340 O.co2   1  lig        -0.8016
     24 O3         22.4240    4.9130   13.0526 O.3     1  lig        -0.4958
@<TRIPOS>BOND
     1    20    21    1
     2     8    21    1
     3     9    21    1
     4    10    21    1
     5    18    20    1
     6    19    20    1
     7     7    20    1
     8    18    23    1
     9    18    22    1
    10    16    19    1
    11     5    19    1
    12     6    19    1
    13    12    16   ar
    14    13    16   ar
    15    12    14   ar
    16     1    12    1
    17    13    15   ar
    18     2    13    1
    19    14    17   ar
    20     3    14    1
    21    15    17   ar
    22     4    15    1
    23    17    24    1
    24    11    24    1
@<TRIPOS>SUBSTRUCTURE
     1 lig         1 TEMP              0 ****  ****    0 ROOT


########## Name:		ligand
########## HA_RMSDs:		14.6248
########## HA_RMSDh:		14.5650
########## HA_RMSDm:		12.3983
########## Cluster Size:	6
##########    Grid Score:          -22.930674
##########      Grid_vdw:          -19.630268
##########       Grid_es:           -3.300406
##########    Int_energy:            1.612276

@<TRIPOS>MOLECULE
ligand
 24 24 1 0 0
SMALL
No Charge or Current Charge


@<TRIPOS>ATOM
      1 H1         22.9800    7.4788   13.1024 H       1  lig         0.1313
      2 H2         25.9394    4.5544   12.1396 H       1  lig         0.1473
      3 H3         24.7584    8.9977   13.7956 H       1  lig         0.1394
      4 H4         27.7379    6.0653   12.8877 H       1  lig         0.1574
      5 H5         22.6081    5.5214   11.4559 H       1  lig         0.1170
      6 H6         23.6666    4.1520   11.5640 H       1  lig         0.0678
      7 H7         21.9100    5.1706   13.8567 H       1  lig         0.0912
      8 H8         24.0030    4.1433   14.5737 H       1  lig         0.4249
      9 H9         22.7449    3.1029   14.9029 H       1  lig         0.4256
     10 H10        23.7254    2.8265   13.5795 H       1  lig         0.4835
     11 H11        28.0830    8.2610   13.3400 H       1  lig         0.4236
     12 C1         24.0176    7.1541   13.0556 C.ar    1  lig        -0.1098
     13 C2         25.6844    5.5424   12.5199 C.ar    1  lig        -0.0948
     14 C3         25.0169    8.0057   13.4389 C.ar    1  lig        -0.2079
     15 C4         26.6992    6.3797   12.9422 C.ar    1  lig        -0.1468
     16 C5         24.3474    5.9147   12.5998 C.ar    1  lig        -0.1510
     17 C6         26.3347    7.6324   13.4215 C.ar    1  lig         0.1263
     18 C7         21.2710    3.5467   12.6669 C.2     1  lig         0.9365
     19 C8         23.2473    4.9720   12.1501 C.3     1  lig        -0.0459
     20 C9         22.3793    4.3839   13.2631 C.3     1  lig        -0.0743
     21 N1         23.2478    3.5900   14.1316 N.4     1  lig        -0.8330
     22 O1         21.0992    2.4597   13.2140 O.co2   1  lig        -0.7110
     23 O2         20.5877    3.9066   11.6656 O.co2   1  lig        -0.8016
     24 O3         27.2101    8.4856   13.7779 O.3     1  lig        -0.4958
@<TRIPOS>BOND
     1    20    21    1
     2     8    21    1
     3     9    21    1
     4    10    21    1
     5    18    20    1
     6    19    20    1
     7     7    20    1
     8    18    23    1
     9    18    22    1
    10    16    19    1
    11     5    19    1
    12     6    19    1
    13    12    16   ar
    14    13    16   ar
    15    12    14   ar
    16     1    12    1
    17    13    15   ar
    18     2    13    1
    19    14    17   ar
    20     3    14    1
    21    15    17   ar
    22     4    15    1
    23    17    24    1
    24    11    24    1
@<TRIPOS>SUBSTRUCTURE
     1 lig         1 TEMP              0 ****  ****    0 ROOT


########## Name:		ligand
########## HA_RMSDs:		13.0645
########## HA_RMSDh:		13.0645
########## HA_RMSDm:		11.0642
########## Cluster Size:	10
##########    Grid Score:          -22.814642
##########      Grid_vdw:          -20.861320
##########       Grid_es:           -1.953322
##########    Int_energy:            2.296021

@<TRIPOS>MOLECULE
ligand
 24 24 1 0 0
SMALL
No Charge or Current Charge


@<TRIPOS>ATOM
      1 H1          9.3045    9.5021   23.8472 H       1  lig         0.1313
      2 H2         10.4946    8.0449   20.0135 H       1  lig         0.1473
      3 H3         11.1591   11.0852   23.7811 H       1  lig         0.1394
      4 H4         12.4015    9.6064   19.9641 H       1  lig         0.1574
      5 H5          8.9993    6.7533   22.4094 H       1  lig         0.1170
      6 H6          7.8609    8.0380   22.6561 H       1  lig         0.0678
      7 H7          8.7183    6.9594   19.9215 H       1  lig         0.0912
      8 H8          8.2260    9.3485   19.9233 H       1  lig         0.4249
      9 H9          6.9838    8.5370   19.1671 H       1  lig         0.4256
     10 H10         6.7888    9.0763   20.7355 H       1  lig         0.4835
     11 H11        13.3399   11.2614   21.0676 H       1  lig         0.4236
     12 C1          9.9787    9.5102   22.9930 C.ar    1  lig        -0.1098
     13 C2         10.6562    8.7186   20.8536 C.ar    1  lig        -0.0948
     14 C3         11.0163   10.4003   22.9513 C.ar    1  lig        -0.2079
     15 C4         11.7312    9.5861   20.8190 C.ar    1  lig        -0.1468
     16 C5          9.7978    8.6600   21.9455 C.ar    1  lig        -0.1510
     17 C6         11.9051   10.4301   21.9095 C.ar    1  lig         0.1263
     18 C7          6.8876    6.3628   20.7896 C.2     1  lig         0.9365
     19 C8          8.6357    7.6855   21.9724 C.3     1  lig        -0.0459
     20 C9          7.9922    7.3805   20.6193 C.3     1  lig        -0.0743
     21 N1          7.4865    8.6395   20.0736 N.4     1  lig        -0.8330
     22 O1          5.7873    6.8409   21.0565 O.co2   1  lig        -0.7110
     23 O2          7.0704    5.1148   20.7004 O.co2   1  lig        -0.8016
     24 O3         12.8366   11.2979   21.9333 O.3     1  lig        -0.4958
@<TRIPOS>BOND
     1    20    21    1
     2     8    21    1
     3     9    21    1
     4    10    21    1
     5    18    20    1
     6    19    20    1
     7     7    20    1
     8    18    23    1
     9    18    22    1
    10    16    19    1
    11     5    19    1
    12     6    19    1
    13    12    16   ar
    14    13    16   ar
    15    12    14   ar
    16     1    12    1
    17    13    15   ar
    18     2    13    1
    19    14    17   ar
    20     3    14    1
    21    15    17   ar
    22     4    15    1
    23    17    24    1
    24    11    24    1
@<TRIPOS>SUBSTRUCTURE
     1 lig         1 TEMP              0 ****  ****    0 ROOT


########## Name:		ligand
########## HA_RMSDs:		12.7042
########## HA_RMSDh:		12.6708
########## HA_RMSDm:		10.7489
########## Cluster Size:	5
##########    Grid Score:          -22.677986
##########      Grid_vdw:          -17.063892
##########       Grid_es:           -5.614094
##########    Int_energy:            1.240326

@<TRIPOS>MOLECULE
ligand
 24 24 1 0 0
SMALL
No Charge or Current Charge


@<TRIPOS>ATOM
      1 H1         10.4921    7.2849   23.1784 H       1  lig         0.1313
      2 H2         11.4971   10.7986   20.9692 H       1  lig         0.1473
      3 H3         12.7944    7.1717   23.9763 H       1  lig         0.1394
      4 H4         13.8377   10.6599   21.7302 H       1  lig         0.1574
      5 H5          8.7971    9.3518   22.3861 H       1  lig         0.1170
      6 H6          9.3010    9.9709   20.8466 H       1  lig         0.0678
      7 H7          9.1423    6.9663   21.3874 H       1  lig         0.0912
      8 H8         10.5035    7.7314   19.5134 H       1  lig         0.4249
      9 H9          9.1272    7.0014   18.9246 H       1  lig         0.4256
     10 H10         9.2384    8.6676   18.9454 H       1  lig         0.4835
     11 H11        15.1753    9.5528   23.0845 H       1  lig         0.4236
     12 C1         11.2160    8.0274   22.8487 C.ar    1  lig        -0.1098
     13 C2         11.7972    9.9876   21.6310 C.ar    1  lig        -0.0948
     14 C3         12.5063    7.9691   23.2985 C.ar    1  lig        -0.2079
     15 C4         13.1127    9.9152   22.0474 C.ar    1  lig        -0.1468
     16 C5         10.8571    9.0349   22.0066 C.ar    1  lig        -0.1510
     17 C6         13.4580    8.8660   22.8911 C.ar    1  lig         0.1263
     18 C7          7.3674    7.9308   20.7708 C.2     1  lig         0.9365
     19 C8          9.4226    9.1213   21.5213 C.3     1  lig        -0.0459
     20 C9          8.8763    7.8691   20.8345 C.3     1  lig        -0.0743
     21 N1          9.4704    7.7991   19.5000 N.4     1  lig        -0.8330
     22 O1          6.9194    8.4978   19.7766 O.co2   1  lig        -0.7110
     23 O2          6.6126    7.4704   21.6747 O.co2   1  lig        -0.8016
     24 O3         14.6346    8.7574   23.3656 O.3     1  lig        -0.4958
@<TRIPOS>BOND
     1    20    21    1
     2     8    21    1
     3     9    21    1
     4    10    21    1
     5    18    20    1
     6    19    20    1
     7     7    20    1
     8    18    23    1
     9    18    22    1
    10    16    19    1
    11     5    19    1
    12     6    19    1
    13    12    16   ar
    14    13    16   ar
    15    12    14   ar
    16     1    12    1
    17    13    15   ar
    18     2    13    1
    19    14    17   ar
    20     3    14    1
    21    15    17   ar
    22     4    15    1
    23    17    24    1
    24    11    24    1
@<TRIPOS>SUBSTRUCTURE
     1 lig         1 TEMP              0 ****  ****    0 ROOT


########## Name:		ligand
########## HA_RMSDs:		14.6891
########## HA_RMSDh:		14.6601
########## HA_RMSDm:		12.3523
########## Cluster Size:	4
##########    Grid Score:          -22.636003
##########      Grid_vdw:          -18.924545
##########       Grid_es:           -3.711458
##########    Int_energy:            3.358912

@<TRIPOS>MOLECULE
ligand
 24 24 1 0 0
SMALL
No Charge or Current Charge


@<TRIPOS>ATOM
      1 H1          7.7146    9.5907   22.9328 H       1  lig         0.1313
      2 H2          7.2005    6.4391   20.0972 H       1  lig         0.1473
      3 H3          5.9064    8.6386   24.2647 H       1  lig         0.1394
      4 H4          5.3378    5.5018   21.4120 H       1  lig         0.1574
      5 H5          8.9995    7.8984   19.8837 H       1  lig         0.1170
      6 H6          8.3320    9.4956   19.9873 H       1  lig         0.0678
      7 H7          9.6248    9.7383   22.2451 H       1  lig         0.0912
      8 H8         10.2547   10.7776   20.1301 H       1  lig         0.4249
      9 H9         11.6309   10.2687   20.9180 H       1  lig         0.4256
     10 H10        11.0265    9.3752   19.6431 H       1  lig         0.4835
     11 H11         4.9608    6.4143   24.5864 H       1  lig         0.4236
     12 C1          7.1987    8.6979   22.5850 C.ar    1  lig        -0.1098
     13 C2          6.8987    6.9290   21.0218 C.ar    1  lig        -0.0948
     14 C3          6.1879    8.1592   23.3324 C.ar    1  lig        -0.2079
     15 C4          5.8497    6.3992   21.7486 C.ar    1  lig        -0.1468
     16 C5          7.5546    8.0877   21.4215 C.ar    1  lig        -0.1510
     17 C6          5.4931    7.0522   22.9227 C.ar    1  lig         0.1263
     18 C7         10.6725    7.9339   21.9175 C.2     1  lig         0.9365
     19 C8          8.6903    8.6644   20.5978 C.3     1  lig        -0.0459
     20 C9          9.9147    9.1293   21.3868 C.3     1  lig        -0.0743
     21 N1         10.7407    9.9374   20.4905 N.4     1  lig        -0.8330
     22 O1         11.8194    8.1769   22.2864 O.co2   1  lig        -0.7110
     23 O2         10.1916    6.7650   21.9554 O.co2   1  lig        -0.8016
     24 O3          4.5754    6.5990   23.6801 O.3     1  lig        -0.4958
@<TRIPOS>BOND
     1    20    21    1
     2     8    21    1
     3     9    21    1
     4    10    21    1
     5    18    20    1
     6    19    20    1
     7     7    20    1
     8    18    23    1
     9    18    22    1
    10    16    19    1
    11     5    19    1
    12     6    19    1
    13    12    16   ar
    14    13    16   ar
    15    12    14   ar
    16     1    12    1
    17    13    15   ar
    18     2    13    1
    19    14    17   ar
    20     3    14    1
    21    15    17   ar
    22     4    15    1
    23    17    24    1
    24    11    24    1
@<TRIPOS>SUBSTRUCTURE
     1 lig         1 TEMP              0 ****  ****    0 ROOT


########## Name:		ligand
########## HA_RMSDs:		14.6272
########## HA_RMSDh:		14.5789
########## HA_RMSDm:		11.5744
########## Cluster Size:	2
##########    Grid Score:          -22.608116
##########      Grid_vdw:          -16.156273
##########       Grid_es:           -6.451843
##########    Int_energy:            4.386661

@<TRIPOS>MOLECULE
ligand
 24 24 1 0 0
SMALL
No Charge or Current Charge


@<TRIPOS>ATOM
      1 H1         24.9555    4.2257   12.7896 H       1  lig         0.1313
      2 H2         25.5297    8.2919   13.9615 H       1  lig         0.1473
      3 H3         27.2013    4.2209   11.8372 H       1  lig         0.1394
      4 H4         27.7798    8.3095   12.9547 H       1  lig         0.1574
      5 H5         23.5206    5.2703   14.4247 H       1  lig         0.1170
      6 H6         23.6737    6.9339   14.8897 H       1  lig         0.0678
      7 H7         21.6052    6.6520   13.5985 H       1  lig         0.0912
      8 H8         22.3417    4.6781   12.3691 H       1  lig         0.4249
      9 H9         21.7995    5.8225   11.2875 H       1  lig         0.4256
     10 H10        23.4401    5.5970   11.5039 H       1  lig         0.4835
     11 H11        29.3082    6.9731   12.0721 H       1  lig         0.4236
     12 C1         25.5613    5.1289   12.8276 C.ar    1  lig        -0.1098
     13 C2         25.9059    7.3922   13.4769 C.ar    1  lig        -0.0948
     14 C3         26.8226    5.1273   12.2988 C.ar    1  lig        -0.2079
     15 C4         27.1660    7.4139   12.9105 C.ar    1  lig        -0.1468
     16 C5         25.0945    6.2652   13.4141 C.ar    1  lig        -0.1510
     17 C6         27.6115    6.2471   12.3006 C.ar    1  lig         0.1263
     18 C7         22.7883    8.0298   12.5201 C.2     1  lig         0.9365
     19 C8         23.7058    6.2691   14.0243 C.3     1  lig        -0.0459
     20 C9         22.5645    6.6428   13.0778 C.3     1  lig        -0.0743
     21 N1         22.5182    5.6360   12.0181 N.4     1  lig        -0.8330
     22 O1         22.5200    8.1515   11.3269 O.co2   1  lig        -0.7110
     23 O2         23.2450    8.9903   13.2040 O.co2   1  lig        -0.8016
     24 O3         28.7810    6.1643   11.8040 O.3     1  lig        -0.4958
@<TRIPOS>BOND
     1    20    21    1
     2     8    21    1
     3     9    21    1
     4    10    21    1
     5    18    20    1
     6    19    20    1
     7     7    20    1
     8    18    23    1
     9    18    22    1
    10    16    19    1
    11     5    19    1
    12     6    19    1
    13    12    16   ar
    14    13    16   ar
    15    12    14   ar
    16     1    12    1
    17    13    15   ar
    18     2    13    1
    19    14    17   ar
    20     3    14    1
    21    15    17   ar
    22     4    15    1
    23    17    24    1
    24    11    24    1
@<TRIPOS>SUBSTRUCTURE
     1 lig         1 TEMP              0 ****  ****    0 ROOT


########## Name:		ligand
########## HA_RMSDs:		14.2898
########## HA_RMSDh:		14.2898
########## HA_RMSDm:		12.5688
########## Cluster Size:	15
##########    Grid Score:          -22.604788
##########      Grid_vdw:          -12.973287
##########       Grid_es:           -9.631501
##########    Int_energy:            3.005797

@<TRIPOS>MOLECULE
ligand
 24 24 1 0 0
SMALL
No Charge or Current Charge


@<TRIPOS>ATOM
      1 H1         25.0177    7.0760   16.5585 H       1  lig         0.1313
      2 H2         25.0402    6.9091   12.2913 H       1  lig         0.1473
      3 H3         27.1264    8.3002   16.4857 H       1  lig         0.1394
      4 H4         27.1972    8.0998   12.2131 H       1  lig         0.1574
      5 H5         23.3045    6.0412   15.5174 H       1  lig         0.1170
      6 H6         22.7991    6.7562   14.0205 H       1  lig         0.0678
      7 H7         23.9750    4.8208   12.7891 H       1  lig         0.0912
      8 H8         21.5754    4.9247   13.2151 H       1  lig         0.4249
      9 H9         22.0880    3.3476   13.3687 H       1  lig         0.4256
     10 H10        21.7920    4.2605   14.7354 H       1  lig         0.4835
     11 H11        28.9242    8.7154   13.5852 H       1  lig         0.4236
     12 C1         25.4871    7.2886   15.6000 C.ar    1  lig        -0.1098
     13 C2         25.5172    7.2134   13.2217 C.ar    1  lig        -0.0948
     14 C3         26.6669    7.9791   15.5562 C.ar    1  lig        -0.2079
     15 C4         26.7290    7.8753   13.1675 C.ar    1  lig        -0.1468
     16 C5         24.9097    6.8966   14.4313 C.ar    1  lig        -0.1510
     17 C6         27.3072    8.2473   14.3755 C.ar    1  lig         0.1263
     18 C7         24.4682    3.8232   14.5843 C.2     1  lig         0.9365
     19 C8         23.5893    6.1510   14.4690 C.3     1  lig        -0.0459
     20 C9         23.5849    4.7724   13.8075 C.3     1  lig        -0.0743
     21 N1         22.1997    4.3057   13.7620 N.4     1  lig        -0.8330
     22 O1         24.6501    2.7345   14.0437 O.co2   1  lig        -0.7110
     23 O2         24.9615    4.0986   15.7154 O.co2   1  lig        -0.8016
     24 O3         28.3943    8.9093   14.4133 O.3     1  lig        -0.4958
@<TRIPOS>BOND
     1    20    21    1
     2     8    21    1
     3     9    21    1
     4    10    21    1
     5    18    20    1
     6    19    20    1
     7     7    20    1
     8    18    23    1
     9    18    22    1
    10    16    19    1
    11     5    19    1
    12     6    19    1
    13    12    16   ar
    14    13    16   ar
    15    12    14   ar
    16     1    12    1
    17    13    15   ar
    18     2    13    1
    19    14    17   ar
    20     3    14    1
    21    15    17   ar
    22     4    15    1
    23    17    24    1
    24    11    24    1
@<TRIPOS>SUBSTRUCTURE
     1 lig         1 TEMP              0 ****  ****    0 ROOT


########## Name:		ligand
########## HA_RMSDs:		15.0192
########## HA_RMSDh:		14.9796
########## HA_RMSDm:		13.2214
########## Cluster Size:	13
##########    Grid Score:          -22.431353
##########      Grid_vdw:          -16.987204
##########       Grid_es:           -5.444149
##########    Int_energy:            2.017011

@<TRIPOS>MOLECULE
ligand
 24 24 1 0 0
SMALL
No Charge or Current Charge


@<TRIPOS>ATOM
      1 H1         21.6204    4.8466   12.0388 H       1  lig         0.1313
      2 H2         25.7544    5.5522   12.8448 H       1  lig         0.1473
      3 H3         21.3144    7.2429   11.7010 H       1  lig         0.1394
      4 H4         25.4406    7.9802   12.5562 H       1  lig         0.1574
      5 H5         23.8905    3.0986   11.6900 H       1  lig         0.1170
      6 H6         24.8981    3.3621   13.0766 H       1  lig         0.0678
      7 H7         21.8562    3.0263   13.1986 H       1  lig         0.0912
      8 H8         22.7993    4.4431   14.9459 H       1  lig         0.4249
      9 H9         22.3546    2.9822   15.6103 H       1  lig         0.4256
     10 H10        23.9636    3.2906   15.2858 H       1  lig         0.4835
     11 H11        22.1669    9.2100   12.2298 H       1  lig         0.4236
     12 C1         22.4646    5.5223   12.1609 C.ar    1  lig        -0.1098
     13 C2         24.7660    5.9385   12.6001 C.ar    1  lig        -0.0948
     14 C3         22.2968    6.8658   11.9672 C.ar    1  lig        -0.2079
     15 C4         24.5992    7.3015   12.4461 C.ar    1  lig        -0.1468
     16 C5         23.7006    5.0531   12.4850 C.ar    1  lig        -0.1510
     17 C6         23.3235    7.7568   12.1346 C.ar    1  lig         0.1263
     18 C7         23.1153    1.3701   13.5629 C.2     1  lig         0.9365
     19 C8         23.9013    3.5620   12.6786 C.3     1  lig        -0.0459
     20 C9         22.8711    2.8618   13.5653 C.3     1  lig        -0.0743
     21 N1         22.9856    3.4253   14.9099 N.4     1  lig        -0.8330
     22 O1         22.1113    0.6864   13.7504 O.co2   1  lig        -0.7110
     23 O2         24.2589    0.8517   13.4141 O.co2   1  lig        -0.8016
     24 O3         23.0947    8.9910   11.9208 O.3     1  lig        -0.4958
@<TRIPOS>BOND
     1    20    21    1
     2     8    21    1
     3     9    21    1
     4    10    21    1
     5    18    20    1
     6    19    20    1
     7     7    20    1
     8    18    23    1
     9    18    22    1
    10    16    19    1
    11     5    19    1
    12     6    19    1
    13    12    16   ar
    14    13    16   ar
    15    12    14   ar
    16     1    12    1
    17    13    15   ar
    18     2    13    1
    19    14    17   ar
    20     3    14    1
    21    15    17   ar
    22     4    15    1
    23    17    24    1
    24    11    24    1
@<TRIPOS>SUBSTRUCTURE
     1 lig         1 TEMP              0 ****  ****    0 ROOT


########## Name:		ligand
########## HA_RMSDs:		12.6472
########## HA_RMSDh:		12.6209
########## HA_RMSDm:		10.4829
########## Cluster Size:	24
##########    Grid Score:          -22.390249
##########      Grid_vdw:          -18.291286
##########       Grid_es:           -4.098962
##########    Int_energy:            3.203254

@<TRIPOS>MOLECULE
ligand
 24 24 1 0 0
SMALL
No Charge or Current Charge


@<TRIPOS>ATOM
      1 H1          9.1793   10.2127   23.8440 H       1  lig         0.1313
      2 H2         10.6342    9.4146   19.9090 H       1  lig         0.1473
      3 H3          7.2189    8.8450   23.3575 H       1  lig         0.1394
      4 H4          8.6305    8.0745   19.3933 H       1  lig         0.1574
      5 H5         11.4230   11.4006   21.3417 H       1  lig         0.1170
      6 H6         11.0503   11.4295   23.0351 H       1  lig         0.0678
      7 H7         13.2708   10.5975   22.9904 H       1  lig         0.0912
      8 H8         13.3072   10.2647   20.5742 H       1  lig         0.4249
      9 H9         13.9201    8.9077   21.3202 H       1  lig         0.4256
     10 H10        12.3600    8.8937   20.7244 H       1  lig         0.4835
     11 H11         5.9771    8.0914   21.6945 H       1  lig         0.4236
     12 C1          9.0690    9.7548   22.8629 C.ar    1  lig        -0.1098
     13 C2          9.8633    9.2913   20.6682 C.ar    1  lig        -0.0948
     14 C3          7.9732    8.9834   22.5893 C.ar    1  lig        -0.2079
     15 C4          8.7412    8.5430   20.3674 C.ar    1  lig        -0.1468
     16 C5         10.0170    9.9174   21.8997 C.ar    1  lig        -0.1510
     17 C6          7.7790    8.4085   21.3614 C.ar    1  lig         0.1263
     18 C7         12.2213    8.8195   23.4357 C.2     1  lig         0.9365
     19 C8         11.2472   10.7518   22.2022 C.3     1  lig        -0.0459
     20 C9         12.5255    9.9678   22.5010 C.3     1  lig        -0.0743
     21 N1         13.0666    9.4975   21.2264 N.4     1  lig        -0.8330
     22 O1         12.2160    7.7123   22.9021 O.co2   1  lig        -0.7110
     23 O2         11.9591    8.9712   24.6633 O.co2   1  lig        -0.8016
     24 O3          6.7422    7.6903   21.1865 O.3     1  lig        -0.4958
@<TRIPOS>BOND
     1    20    21    1
     2     8    21    1
     3     9    21    1
     4    10    21    1
     5    18    20    1
     6    19    20    1
     7     7    20    1
     8    18    23    1
     9    18    22    1
    10    16    19    1
    11     5    19    1
    12     6    19    1
    13    12    16   ar
    14    13    16   ar
    15    12    14   ar
    16     1    12    1
    17    13    15   ar
    18     2    13    1
    19    14    17   ar
    20     3    14    1
    21    15    17   ar
    22     4    15    1
    23    17    24    1
    24    11    24    1
@<TRIPOS>SUBSTRUCTURE
     1 lig         1 TEMP              0 ****  ****    0 ROOT


########## Name:		ligand
########## HA_RMSDs:		12.9523
########## HA_RMSDh:		12.9239
########## HA_RMSDm:		10.9585
########## Cluster Size:	4
##########    Grid Score:          -22.213678
##########      Grid_vdw:          -14.265137
##########       Grid_es:           -7.948541
##########    Int_energy:            4.127142

@<TRIPOS>MOLECULE
ligand
 24 24 1 0 0
SMALL
No Charge or Current Charge


@<TRIPOS>ATOM
      1 H1         24.4365    5.6787   16.2333 H       1  lig         0.1313
      2 H2         25.4207    9.1007   13.8757 H       1  lig         0.1473
      3 H3         26.0021    6.4481   17.9384 H       1  lig         0.1394
      4 H4         27.0429    9.8560   15.5713 H       1  lig         0.1574
      5 H5         24.4282    6.3239   13.1221 H       1  lig         0.1170
      6 H6         23.1737    6.1309   14.3038 H       1  lig         0.0678
      7 H7         23.0501    8.8838   13.7975 H       1  lig         0.0912
      8 H8         21.2259    7.2755   13.9864 H       1  lig         0.4249
      9 H9         21.0378    8.1499   12.5816 H       1  lig         0.4256
     10 H10        21.6419    6.5943   12.5159 H       1  lig         0.4835
     11 H11        27.5009    7.7561   18.4568 H       1  lig         0.4236
     12 C1         25.0052    6.5925   16.0728 C.ar    1  lig        -0.1098
     13 C2         25.5642    8.5100   14.7792 C.ar    1  lig        -0.0948
     14 C3         25.8800    7.0287   17.0295 C.ar    1  lig        -0.2079
     15 C4         26.4799    8.9387   15.7209 C.ar    1  lig        -0.1468
     16 C5         24.8482    7.3292   14.9390 C.ar    1  lig        -0.1510
     17 C6         26.6358    8.1584   16.8606 C.ar    1  lig         0.1263
     18 C7         23.6499    8.3006   11.8581 C.2     1  lig         0.9365
     19 C8         23.8628    6.8658   13.8831 C.3     1  lig        -0.0459
     20 C9         23.0483    7.9675   13.2042 C.3     1  lig        -0.0743
     21 N1         21.6723    7.4888   13.0770 N.4     1  lig        -0.8330
     22 O1         22.8539    8.7564   11.0401 O.co2   1  lig        -0.7110
     23 O2         24.8649    8.1020   11.5697 O.co2   1  lig        -0.8016
     24 O3         27.4169    8.5104   17.8025 O.3     1  lig        -0.4958
@<TRIPOS>BOND
     1    20    21    1
     2     8    21    1
     3     9    21    1
     4    10    21    1
     5    18    20    1
     6    19    20    1
     7     7    20    1
     8    18    23    1
     9    18    22    1
    10    16    19    1
    11     5    19    1
    12     6    19    1
    13    12    16   ar
    14    13    16   ar
    15    12    14   ar
    16     1    12    1
    17    13    15   ar
    18     2    13    1
    19    14    17   ar
    20     3    14    1
    21    15    17   ar
    22     4    15    1
    23    17    24    1
    24    11    24    1
@<TRIPOS>SUBSTRUCTURE
     1 lig         1 TEMP              0 ****  ****    0 ROOT


########## Name:		ligand
########## HA_RMSDs:		12.2422
########## HA_RMSDh:		12.2248
########## HA_RMSDm:		10.1231
########## Cluster Size:	12
##########    Grid Score:          -22.188692
##########      Grid_vdw:          -18.407206
##########       Grid_es:           -3.781487
##########    Int_energy:            2.215033

@<TRIPOS>MOLECULE
ligand
 24 24 1 0 0
SMALL
No Charge or Current Charge


@<TRIPOS>ATOM
      1 H1         10.9081    7.3474   23.2556 H       1  lig         0.1313
      2 H2         10.3789    9.8823   19.8599 H       1  lig         0.1473
      3 H3          8.5415    6.7665   23.1456 H       1  lig         0.1394
      4 H4          7.9756    9.3400   19.7755 H       1  lig         0.1574
      5 H5         12.7936    8.1414   22.0015 H       1  lig         0.1170
      6 H6         12.6465    9.1839   20.6235 H       1  lig         0.0678
      7 H7         12.2518   10.1074   23.5170 H       1  lig         0.0912
      8 H8         10.9774   11.3512   21.8500 H       1  lig         0.4249
      9 H9         12.2369   12.2975   22.3902 H       1  lig         0.4256
     10 H10        12.3468   11.5378   20.9070 H       1  lig         0.4835
     11 H11         6.4128    8.1356   20.7459 H       1  lig         0.4236
     12 C1         10.2759    7.7956   22.4916 C.ar    1  lig        -0.1098
     13 C2          9.9591    9.1971   20.5947 C.ar    1  lig        -0.0948
     14 C3          8.9498    7.4678   22.4247 C.ar    1  lig        -0.2079
     15 C4          8.6098    8.9039   20.5426 C.ar    1  lig        -0.1468
     16 C5         10.7855    8.6680   21.5794 C.ar    1  lig        -0.1510
     17 C6          8.1104    8.0257   21.4972 C.ar    1  lig         0.1263
     18 C7         14.1297   10.3613   22.5843 C.2     1  lig         0.9365
     19 C8         12.2602    9.0193   21.6313 C.3     1  lig        -0.0459
     20 C9         12.6268   10.2240   22.4986 C.3     1  lig        -0.0743
     21 N1         12.0101   11.4070   21.8997 N.4     1  lig        -0.8330
     22 O1         14.5337   11.5181   22.6802 O.co2   1  lig        -0.7110
     23 O2         14.9232    9.3784   22.5303 O.co2   1  lig        -0.8016
     24 O3          6.8911    7.6590   21.4863 O.3     1  lig        -0.4958
@<TRIPOS>BOND
     1    20    21    1
     2     8    21    1
     3     9    21    1
     4    10    21    1
     5    18    20    1
     6    19    20    1
     7     7    20    1
     8    18    23    1
     9    18    22    1
    10    16    19    1
    11     5    19    1
    12     6    19    1
    13    12    16   ar
    14    13    16   ar
    15    12    14   ar
    16     1    12    1
    17    13    15   ar
    18     2    13    1
    19    14    17   ar
    20     3    14    1
    21    15    17   ar
    22     4    15    1
    23    17    24    1
    24    11    24    1
@<TRIPOS>SUBSTRUCTURE
     1 lig         1 TEMP              0 ****  ****    0 ROOT


########## Name:		ligand
########## HA_RMSDs:		12.8510
########## HA_RMSDh:		12.7683
########## HA_RMSDm:		11.0385
########## Cluster Size:	11
##########    Grid Score:          -22.186415
##########      Grid_vdw:          -16.546902
##########       Grid_es:           -5.639513
##########    Int_energy:            3.931214

@<TRIPOS>MOLECULE
ligand
 24 24 1 0 0
SMALL
No Charge or Current Charge


@<TRIPOS>ATOM
      1 H1         11.8185    9.9647   21.9172 H       1  lig         0.1313
      2 H2          8.1464    8.9353   23.8391 H       1  lig         0.1473
      3 H3         10.9106    9.1270   19.8138 H       1  lig         0.1394
      4 H4          7.2427    8.0391   21.7279 H       1  lig         0.1574
      5 H5         10.4223    9.2597   25.0864 H       1  lig         0.1170
      6 H6         11.6858   10.1146   24.2619 H       1  lig         0.0678
      7 H7          9.5993   11.2619   25.7999 H       1  lig         0.0912
      8 H8          8.1739   11.0222   23.8349 H       1  lig         0.4249
      9 H9          8.5024   12.6370   24.0757 H       1  lig         0.4256
     10 H10         9.3138   11.7941   22.8840 H       1  lig         0.4835
     11 H11         9.1082    8.6324   18.7811 H       1  lig         0.4236
     12 C1         10.8168    9.5403   21.8912 C.ar    1  lig        -0.1098
     13 C2          8.7596    8.9645   22.9397 C.ar    1  lig        -0.0948
     14 C3         10.3036    9.0744   20.7121 C.ar    1  lig        -0.2079
     15 C4          8.2463    8.4544   21.7626 C.ar    1  lig        -0.1468
     16 C5         10.0481    9.4812   23.0130 C.ar    1  lig        -0.1510
     17 C6          9.0584    8.5088   20.6360 C.ar    1  lig         0.1263
     18 C7         11.0964   12.4019   24.8407 C.2     1  lig         0.9365
     19 C8         10.6000   10.0171   24.3203 C.3     1  lig        -0.0459
     20 C9         10.0141   11.3477   24.7939 C.3     1  lig        -0.0743
     21 N1          8.9421   11.7154   23.8696 N.4     1  lig        -0.8330
     22 O1         11.4113   12.7627   25.9726 O.co2   1  lig        -0.7110
     23 O2         11.6228   12.9062   23.8076 O.co2   1  lig        -0.8016
     24 O3          8.6424    8.1122   19.4998 O.3     1  lig        -0.4958
@<TRIPOS>BOND
     1    20    21    1
     2     8    21    1
     3     9    21    1
     4    10    21    1
     5    18    20    1
     6    19    20    1
     7     7    20    1
     8    18    23    1
     9    18    22    1
    10    16    19    1
    11     5    19    1
    12     6    19    1
    13    12    16   ar
    14    13    16   ar
    15    12    14   ar
    16     1    12    1
    17    13    15   ar
    18     2    13    1
    19    14    17   ar
    20     3    14    1
    21    15    17   ar
    22     4    15    1
    23    17    24    1
    24    11    24    1
@<TRIPOS>SUBSTRUCTURE
     1 lig         1 TEMP              0 ****  ****    0 ROOT


########## Name:		ligand
########## HA_RMSDs:		10.2178
########## HA_RMSDh:		10.1229
########## HA_RMSDm:		8.4112
########## Cluster Size:	11
##########    Grid Score:          -22.083710
##########      Grid_vdw:          -17.850492
##########       Grid_es:           -4.233218
##########    Int_energy:            1.801734

@<TRIPOS>MOLECULE
ligand
 24 24 1 0 0
SMALL
No Charge or Current Charge


@<TRIPOS>ATOM
      1 H1         15.2792    9.8384   22.4607 H       1  lig         0.1313
      2 H2         12.1927   12.2756   24.1252 H       1  lig         0.1473
      3 H3         13.6775    8.9870   20.8297 H       1  lig         0.1394
      4 H4         10.5567   11.3800   22.5133 H       1  lig         0.1574
      5 H5         14.2815   11.8387   25.3389 H       1  lig         0.1170
      6 H6         15.5607   10.8748   24.6741 H       1  lig         0.0678
      7 H7         14.8720   13.7203   23.7759 H       1  lig         0.0912
      8 H8         15.7281   12.2986   21.9882 H       1  lig         0.4249
      9 H9         16.9082   13.3871   22.4308 H       1  lig         0.4256
     10 H10        16.9997   11.8048   22.9569 H       1  lig         0.4835
     11 H11        11.6336    9.8373   19.7825 H       1  lig         0.4236
     12 C1         14.2464   10.1804   22.4872 C.ar    1  lig        -0.1098
     13 C2         12.5126   11.5346   23.3942 C.ar    1  lig        -0.0948
     14 C3         13.3476    9.7083   21.5707 C.ar    1  lig        -0.2079
     15 C4         11.5868   11.0344   22.4987 C.ar    1  lig        -0.1468
     16 C5         13.8304   11.0922   23.4083 C.ar    1  lig        -0.1510
     17 C6         12.0323   10.0902   21.5812 C.ar    1  lig         0.1263
     18 C7         16.4722   13.3737   25.1101 C.2     1  lig         0.9365
     19 C8         14.8259   11.6391   24.4137 C.3     1  lig        -0.0459
     20 C9         15.5681   12.9077   23.9920 C.3     1  lig        -0.0743
     21 N1         16.3248   12.5978   22.7796 N.4     1  lig        -0.8330
     22 O1         17.5589   12.8019   25.1622 O.co2   1  lig        -0.7110
     23 O2         16.1403   14.2563   25.9525 O.co2   1  lig        -0.8016
     24 O3         11.2584    9.6201   20.6859 O.3     1  lig        -0.4958
@<TRIPOS>BOND
     1    20    21    1
     2     8    21    1
     3     9    21    1
     4    10    21    1
     5    18    20    1
     6    19    20    1
     7     7    20    1
     8    18    23    1
     9    18    22    1
    10    16    19    1
    11     5    19    1
    12     6    19    1
    13    12    16   ar
    14    13    16   ar
    15    12    14   ar
    16     1    12    1
    17    13    15   ar
    18     2    13    1
    19    14    17   ar
    20     3    14    1
    21    15    17   ar
    22     4    15    1
    23    17    24    1
    24    11    24    1
@<TRIPOS>SUBSTRUCTURE
     1 lig         1 TEMP              0 ****  ****    0 ROOT


########## Name:		ligand
########## HA_RMSDs:		11.3347
########## HA_RMSDh:		11.2787
########## HA_RMSDm:		9.2017
########## Cluster Size:	5
##########    Grid Score:          -22.076160
##########      Grid_vdw:          -17.642197
##########       Grid_es:           -4.433964
##########    Int_energy:            2.055481

@<TRIPOS>MOLECULE
ligand
 24 24 1 0 0
SMALL
No Charge or Current Charge


@<TRIPOS>ATOM
      1 H1         11.9963   11.8900   23.2180 H       1  lig         0.1313
      2 H2         12.7080    7.8586   22.0020 H       1  lig         0.1473
      3 H3         14.4064   12.2265   23.3866 H       1  lig         0.1394
      4 H4         15.1426    8.1768   22.2211 H       1  lig         0.1574
      5 H5         10.3930    9.0002   23.3279 H       1  lig         0.1170
      6 H6         10.1755   10.5803   22.6473 H       1  lig         0.0678
      7 H7         10.6653    8.0225   21.0378 H       1  lig         0.0912
      8 H8         11.6809   10.0026   20.0389 H       1  lig         0.4249
      9 H9         10.3372    9.5741   19.1533 H       1  lig         0.4256
     10 H10        10.2533   10.8560   20.2204 H       1  lig         0.4835
     11 H11        16.6605    9.6386   23.0846 H       1  lig         0.4236
     12 C1         12.6739   11.0664   23.0022 C.ar    1  lig        -0.1098
     13 C2         13.0945    8.8257   22.3201 C.ar    1  lig        -0.0948
     14 C3         14.0258   11.2539   23.0912 C.ar    1  lig        -0.2079
     15 C4         14.4605    8.9923   22.4455 C.ar    1  lig        -0.1468
     16 C5         12.2018    9.8476   22.6219 C.ar    1  lig        -0.1510
     17 C6         14.9160   10.2402   22.8542 C.ar    1  lig         0.1263
     18 C7          8.7260    8.8408   21.2113 C.2     1  lig         0.9365
     19 C8         10.7047    9.6372   22.4976 C.3     1  lig        -0.0459
     20 C9         10.2277    9.0113   21.1867 C.3     1  lig        -0.0743
     21 N1         10.6536    9.8866   20.0953 N.4     1  lig        -0.8330
     22 O1          8.1769    8.9779   20.1203 O.co2   1  lig        -0.7110
     23 O2          8.0685    8.6080   22.2660 O.co2   1  lig        -0.8016
     24 O3         16.1606   10.4951   22.9411 O.3     1  lig        -0.4958
@<TRIPOS>BOND
     1    20    21    1
     2     8    21    1
     3     9    21    1
     4    10    21    1
     5    18    20    1
     6    19    20    1
     7     7    20    1
     8    18    23    1
     9    18    22    1
    10    16    19    1
    11     5    19    1
    12     6    19    1
    13    12    16   ar
    14    13    16   ar
    15    12    14   ar
    16     1    12    1
    17    13    15   ar
    18     2    13    1
    19    14    17   ar
    20     3    14    1
    21    15    17   ar
    22     4    15    1
    23    17    24    1
    24    11    24    1
@<TRIPOS>SUBSTRUCTURE
     1 lig         1 TEMP              0 ****  ****    0 ROOT


########## Name:		ligand
########## HA_RMSDs:		14.1587
########## HA_RMSDh:		14.1217
########## HA_RMSDm:		12.5043
########## Cluster Size:	4
##########    Grid Score:          -22.067333
##########      Grid_vdw:          -15.217556
##########       Grid_es:           -6.849776
##########    Int_energy:            4.213595

@<TRIPOS>MOLECULE
ligand
 24 24 1 0 0
SMALL
No Charge or Current Charge


@<TRIPOS>ATOM
      1 H1         24.4396    5.5154   15.4990 H       1  lig         0.1313
      2 H2         25.1247    8.9992   13.1261 H       1  lig         0.1473
      3 H3         22.4660    5.0291   14.1504 H       1  lig         0.1394
      4 H4         23.1021    8.5419   11.7932 H       1  lig         0.1574
      5 H5         26.0714    8.6412   15.5492 H       1  lig         0.1170
      6 H6         26.1183    7.0190   16.1606 H       1  lig         0.0678
      7 H7         28.3022    7.4481   15.2299 H       1  lig         0.0912
      8 H8         27.6112    9.3581   13.8791 H       1  lig         0.4249
      9 H9         28.4747    8.3005   12.9255 H       1  lig         0.4256
     10 H10        26.8089    8.3462   12.8153 H       1  lig         0.4835
     11 H11        20.9767    5.9222   12.8442 H       1  lig         0.4236
     12 C1         24.1548    6.1899   14.6939 C.ar    1  lig        -0.1098
     13 C2         24.5207    8.1224   13.3544 C.ar    1  lig        -0.0948
     14 C3         23.0515    5.9168   13.9331 C.ar    1  lig        -0.2079
     15 C4         23.3856    7.8779   12.6053 C.ar    1  lig        -0.1468
     16 C5         24.8915    7.2991   14.4114 C.ar    1  lig        -0.1510
     17 C6         22.6401    6.7497   12.9265 C.ar    1  lig         0.1263
     18 C7         27.5085    5.9756   13.9406 C.2     1  lig         0.9365
     19 C8         26.1302    7.5972   15.2346 C.3     1  lig        -0.0459
     20 C9         27.4679    7.3665   14.5308 C.3     1  lig        -0.0743
     21 N1         27.6113    8.3944   13.5006 N.4     1  lig        -0.8330
     22 O1         27.1281    5.9028   12.7741 O.co2   1  lig        -0.7110
     23 O2         27.8708    4.9533   14.5905 O.co2   1  lig        -0.8016
     24 O3         21.6121    6.4207   12.2510 O.3     1  lig        -0.4958
@<TRIPOS>BOND
     1    20    21    1
     2     8    21    1
     3     9    21    1
     4    10    21    1
     5    18    20    1
     6    19    20    1
     7     7    20    1
     8    18    23    1
     9    18    22    1
    10    16    19    1
    11     5    19    1
    12     6    19    1
    13    12    16   ar
    14    13    16   ar
    15    12    14   ar
    16     1    12    1
    17    13    15   ar
    18     2    13    1
    19    14    17   ar
    20     3    14    1
    21    15    17   ar
    22     4    15    1
    23    17    24    1
    24    11    24    1
@<TRIPOS>SUBSTRUCTURE
     1 lig         1 TEMP              0 ****  ****    0 ROOT


########## Name:		ligand
########## HA_RMSDs:		14.6192
########## HA_RMSDh:		14.6071
########## HA_RMSDm:		12.3649
########## Cluster Size:	11
##########    Grid Score:          -21.768429
##########      Grid_vdw:          -18.941038
##########       Grid_es:           -2.827390
##########    Int_energy:            2.771391

@<TRIPOS>MOLECULE
ligand
 24 24 1 0 0
SMALL
No Charge or Current Charge


@<TRIPOS>ATOM
      1 H1          7.2114    9.0123   22.8842 H       1  lig         0.1313
      2 H2          9.2809    7.5128   19.4629 H       1  lig         0.1473
      3 H3          9.0953   10.4969   23.3282 H       1  lig         0.1394
      4 H4         11.2099    8.9730   19.9361 H       1  lig         0.1574
      5 H5          6.0511    7.7987   21.0944 H       1  lig         0.1170
      6 H6          6.9067    7.0254   19.7993 H       1  lig         0.0678
      7 H7          7.7464    5.8749   22.3704 H       1  lig         0.0912
      8 H8          8.0163    4.8943   20.1533 H       1  lig         0.4249
      9 H9          7.0729    3.8855   21.0838 H       1  lig         0.4256
     10 H10         6.3575    4.8665   19.9371 H       1  lig         0.4835
     11 H11        11.6632   10.9024   21.1337 H       1  lig         0.4236
     12 C1          8.0834    8.9893   22.2336 C.ar    1  lig        -0.1098
     13 C2          9.2522    8.1733   20.3282 C.ar    1  lig        -0.0948
     14 C3          9.1389    9.8242   22.4775 C.ar    1  lig        -0.2079
     15 C4         10.3408    8.9837   20.5882 C.ar    1  lig        -0.1468
     16 C5          8.1385    8.1544   21.1599 C.ar    1  lig        -0.1510
     17 C6         10.2676    9.8125   21.7016 C.ar    1  lig         0.1263
     18 C7          5.6364    5.7827   22.3899 C.2     1  lig         0.9365
     19 C8          6.9626    7.2418   20.8679 C.3     1  lig        -0.0459
     20 C9          6.9396    5.9202   21.6366 C.3     1  lig        -0.0743
     21 N1          7.1197    4.8394   20.6680 N.4     1  lig        -0.8330
     22 O1          5.1739    4.6442   22.4098 O.co2   1  lig        -0.7110
     23 O2          5.0401    6.7561   22.9338 O.co2   1  lig        -0.8016
     24 O3         11.2026   10.6304   21.9810 O.3     1  lig        -0.4958
@<TRIPOS>BOND
     1    20    21    1
     2     8    21    1
     3     9    21    1
     4    10    21    1
     5    18    20    1
     6    19    20    1
     7     7    20    1
     8    18    23    1
     9    18    22    1
    10    16    19    1
    11     5    19    1
    12     6    19    1
    13    12    16   ar
    14    13    16   ar
    15    12    14   ar
    16     1    12    1
    17    13    15   ar
    18     2    13    1
    19    14    17   ar
    20     3    14    1
    21    15    17   ar
    22     4    15    1
    23    17    24    1
    24    11    24    1
@<TRIPOS>SUBSTRUCTURE
     1 lig         1 TEMP              0 ****  ****    0 ROOT


########## Name:		ligand
########## HA_RMSDs:		15.2459
########## HA_RMSDh:		15.2111
########## HA_RMSDm:		12.2582
########## Cluster Size:	2
##########    Grid Score:          -21.768021
##########      Grid_vdw:          -18.268553
##########       Grid_es:           -3.499468
##########    Int_energy:            5.225260

@<TRIPOS>MOLECULE
ligand
 24 24 1 0 0
SMALL
No Charge or Current Charge


@<TRIPOS>ATOM
      1 H1         24.1764    2.8107   13.9134 H       1  lig         0.1313
      2 H2         21.0936    5.0576   11.9939 H       1  lig         0.1473
      3 H3         22.6019    0.9712   14.2088 H       1  lig         0.1394
      4 H4         19.4835    3.2226   12.3362 H       1  lig         0.1574
      5 H5         24.7120    4.7939   12.8882 H       1  lig         0.1170
      6 H6         23.6745    5.5446   11.7188 H       1  lig         0.0678
      7 H7         24.4902    6.8172   13.9785 H       1  lig         0.0912
      8 H8         23.3290    5.2079   15.3970 H       1  lig         0.4249
      9 H9         22.6019    6.6978   15.5554 H       1  lig         0.4256
     10 H10        21.8852    5.5210   14.6117 H       1  lig         0.4835
     11 H11        19.2447    1.2770   13.4906 H       1  lig         0.4236
     12 C1         23.1498    2.9166   13.5683 C.ar    1  lig        -0.1098
     13 C2         21.4185    4.1476   12.4960 C.ar    1  lig        -0.0948
     14 C3         22.2664    1.8847   13.7283 C.ar    1  lig        -0.2079
     15 C4         20.5070    3.1271   12.6882 C.ar    1  lig        -0.1468
     16 C5         22.7271    4.0565   12.9563 C.ar    1  lig        -0.1510
     17 C6         20.9585    1.9816   13.3331 C.ar    1  lig         0.1263
     18 C7         22.7649    7.4935   12.9651 C.2     1  lig         0.9365
     19 C8         23.7062    5.1971   12.7533 C.3     1  lig        -0.0459
     20 C9         23.5267    6.4006   13.6793 C.3     1  lig        -0.0743
     21 N1         22.8185    5.9408   14.8734 N.4     1  lig        -0.8330
     22 O1         23.0214    8.6322   13.3501 O.co2   1  lig        -0.7110
     23 O2         21.9058    7.2699   12.0648 O.co2   1  lig        -0.8016
     24 O3         20.1995    0.9730   13.5004 O.3     1  lig        -0.4958
@<TRIPOS>BOND
     1    20    21    1
     2     8    21    1
     3     9    21    1
     4    10    21    1
     5    18    20    1
     6    19    20    1
     7     7    20    1
     8    18    23    1
     9    18    22    1
    10    16    19    1
    11     5    19    1
    12     6    19    1
    13    12    16   ar
    14    13    16   ar
    15    12    14   ar
    16     1    12    1
    17    13    15   ar
    18     2    13    1
    19    14    17   ar
    20     3    14    1
    21    15    17   ar
    22     4    15    1
    23    17    24    1
    24    11    24    1
@<TRIPOS>SUBSTRUCTURE
     1 lig         1 TEMP              0 ****  ****    0 ROOT


########## Name:		ligand
########## HA_RMSDs:		13.0606
########## HA_RMSDh:		13.0438
########## HA_RMSDm:		11.2125
########## Cluster Size:	5
##########    Grid Score:          -21.545677
##########      Grid_vdw:          -16.050350
##########       Grid_es:           -5.495327
##########    Int_energy:            4.033559

@<TRIPOS>MOLECULE
ligand
 24 24 1 0 0
SMALL
No Charge or Current Charge


@<TRIPOS>ATOM
      1 H1          9.5548    7.4412   24.3103 H       1  lig         0.1313
      2 H2         10.3313   11.0765   22.2083 H       1  lig         0.1473
      3 H3          8.1992    8.6948   25.9045 H       1  lig         0.1394
      4 H4          9.0058   12.3569   23.8455 H       1  lig         0.1574
      5 H5         11.8474    8.8989   22.0965 H       1  lig         0.1170
      6 H6         11.0892    7.4057   22.5471 H       1  lig         0.0678
      7 H7         10.7896    7.5160   20.1843 H       1  lig         0.0912
      8 H8         11.4294    9.8626   19.9996 H       1  lig         0.4249
      9 H9         10.0216    9.6131   19.1455 H       1  lig         0.4256
     10 H10         9.9626   10.3387   20.6485 H       1  lig         0.4835
     11 H11         7.8636   12.1581   25.7248 H       1  lig         0.4236
     12 C1          9.4476    8.5185   24.1999 C.ar    1  lig        -0.1098
     13 C2          9.8614   10.5552   23.0409 C.ar    1  lig        -0.0948
     14 C3          8.6841    9.2229   25.0895 C.ar    1  lig        -0.2079
     15 C4          9.1253   11.2826   23.9565 C.ar    1  lig        -0.1468
     16 C5         10.0457    9.1838   23.1740 C.ar    1  lig        -0.1510
     17 C6          8.5412   10.5826   25.0056 C.ar    1  lig         0.1263
     18 C7          8.8222    7.8829   20.8593 C.2     1  lig         0.9365
     19 C8         10.8751    8.4072   22.1689 C.3     1  lig        -0.0459
     20 C9         10.2768    8.2834   20.7672 C.3     1  lig        -0.0743
     21 N1         10.4402    9.5737   20.0986 N.4     1  lig        -0.8330
     22 O1          8.6184    6.6731   20.7862 O.co2   1  lig        -0.7110
     23 O2          7.8763    8.7147   20.9699 O.co2   1  lig        -0.8016
     24 O3          7.8011   11.1673   25.8610 O.3     1  lig        -0.4958
@<TRIPOS>BOND
     1    20    21    1
     2     8    21    1
     3     9    21    1
     4    10    21    1
     5    18    20    1
     6    19    20    1
     7     7    20    1
     8    18    23    1
     9    18    22    1
    10    16    19    1
    11     5    19    1
    12     6    19    1
    13    12    16   ar
    14    13    16   ar
    15    12    14   ar
    16     1    12    1
    17    13    15   ar
    18     2    13    1
    19    14    17   ar
    20     3    14    1
    21    15    17   ar
    22     4    15    1
    23    17    24    1
    24    11    24    1
@<TRIPOS>SUBSTRUCTURE
     1 lig         1 TEMP              0 ****  ****    0 ROOT


########## Name:		ligand
########## HA_RMSDs:		13.9641
########## HA_RMSDh:		13.9529
########## HA_RMSDm:		12.0719
########## Cluster Size:	5
##########    Grid Score:          -21.442280
##########      Grid_vdw:          -15.713408
##########       Grid_es:           -5.728871
##########    Int_energy:            3.345408

@<TRIPOS>MOLECULE
ligand
 24 24 1 0 0
SMALL
No Charge or Current Charge


@<TRIPOS>ATOM
      1 H1         25.5210    6.9657   14.6196 H       1  lig         0.1313
      2 H2         22.5913    4.4768   12.7597 H       1  lig         0.1473
      3 H3         24.6723    8.8602   13.3386 H       1  lig         0.1394
      4 H4         21.7634    6.3758   11.4237 H       1  lig         0.1574
      5 H5         24.1968    3.5167   14.1335 H       1  lig         0.1170
      6 H6         25.7129    4.3071   14.4235 H       1  lig         0.0678
      7 H7         24.3266    3.4562   16.4867 H       1  lig         0.0912
      8 H8         22.2544    4.5212   15.7643 H       1  lig         0.4249
      9 H9         22.7222    5.1737   17.2234 H       1  lig         0.4256
     10 H10        22.9833    6.0265   15.8114 H       1  lig         0.4835
     11 H11        21.8777    9.0079   11.9876 H       1  lig         0.4236
     12 C1         24.7011    6.8211   13.9188 C.ar    1  lig        -0.1098
     13 C2         23.0563    5.4547   12.8748 C.ar    1  lig        -0.0948
     14 C3         24.2202    7.8828   13.2031 C.ar    1  lig        -0.2079
     15 C4         22.5889    6.5115   12.1172 C.ar    1  lig        -0.1468
     16 C5         24.1245    5.5994   13.7526 C.ar    1  lig        -0.1510
     17 C6         23.2075    7.7439   12.2913 C.ar    1  lig         0.1263
     18 C7         25.3993    5.2518   16.7803 C.2     1  lig         0.9365
     19 C8         24.6357    4.4211   14.5596 C.3     1  lig        -0.0459
     20 C9         24.3334    4.4600   16.0580 C.3     1  lig        -0.0743
     21 N1         23.0091    5.0565   16.2289 N.4     1  lig        -0.8330
     22 O1         25.0022    6.2952   17.2944 O.co2   1  lig        -0.7110
     23 O2         26.6126    4.9000   16.8331 O.co2   1  lig        -0.8016
     24 O3         22.8022    8.7815   11.6743 O.3     1  lig        -0.4958
@<TRIPOS>BOND
     1    20    21    1
     2     8    21    1
     3     9    21    1
     4    10    21    1
     5    18    20    1
     6    19    20    1
     7     7    20    1
     8    18    23    1
     9    18    22    1
    10    16    19    1
    11     5    19    1
    12     6    19    1
    13    12    16   ar
    14    13    16   ar
    15    12    14   ar
    16     1    12    1
    17    13    15   ar
    18     2    13    1
    19    14    17   ar
    20     3    14    1
    21    15    17   ar
    22     4    15    1
    23    17    24    1
    24    11    24    1
@<TRIPOS>SUBSTRUCTURE
     1 lig         1 TEMP              0 ****  ****    0 ROOT


########## Name:		ligand
########## HA_RMSDs:		13.8860
########## HA_RMSDh:		13.8394
########## HA_RMSDm:		11.7627
########## Cluster Size:	5
##########    Grid Score:          -21.378759
##########      Grid_vdw:          -18.303343
##########       Grid_es:           -3.075417
##########    Int_energy:            1.652589

@<TRIPOS>MOLECULE
ligand
 24 24 1 0 0
SMALL
No Charge or Current Charge


@<TRIPOS>ATOM
      1 H1          9.3997    7.9615   19.5070 H       1  lig         0.1313
      2 H2          7.8395    9.1983   23.2849 H       1  lig         0.1473
      3 H3         11.2762    9.4877   19.8230 H       1  lig         0.1394
      4 H4          9.7054   10.7807   23.5861 H       1  lig         0.1574
      5 H5          6.5570    7.8230   21.8990 H       1  lig         0.1170
      6 H6          6.8759    7.6790   20.2005 H       1  lig         0.0678
      7 H7          8.4887    5.7550   20.7238 H       1  lig         0.0912
      8 H8          6.1759    5.4345   20.0178 H       1  lig         0.4249
      9 H9          6.5720    4.2635   21.1338 H       1  lig         0.4256
     10 H10         5.6483    5.5746   21.5994 H       1  lig         0.4835
     11 H11        12.0564   11.0869   20.8939 H       1  lig         0.4236
     12 C1          9.4512    8.5774   20.4027 C.ar    1  lig        -0.1098
     13 C2          8.6040    9.2767   22.5135 C.ar    1  lig        -0.0948
     14 C3         10.5049    9.4303   20.5845 C.ar    1  lig        -0.2079
     15 C4          9.6428   10.1709   22.6890 C.ar    1  lig        -0.1468
     16 C5          8.4916    8.5017   21.3650 C.ar    1  lig        -0.1510
     17 C6         10.5991   10.2432   21.6829 C.ar    1  lig         0.1263
     18 C7          8.0769    5.7948   22.7949 C.2     1  lig         0.9365
     19 C8          7.3317    7.5413   21.1829 C.3     1  lig        -0.0459
     20 C9          7.6603    6.0592   21.3662 C.3     1  lig        -0.0743
     21 N1          6.4707    5.2915   21.0000 N.4     1  lig        -0.8330
     22 O1          7.1539    5.7970   23.6064 O.co2   1  lig        -0.7110
     23 O2          9.2776    5.6161   23.1488 O.co2   1  lig        -0.8016
     24 O3         11.6178   10.9994   21.7906 O.3     1  lig        -0.4958
@<TRIPOS>BOND
     1    20    21    1
     2     8    21    1
     3     9    21    1
     4    10    21    1
     5    18    20    1
     6    19    20    1
     7     7    20    1
     8    18    23    1
     9    18    22    1
    10    16    19    1
    11     5    19    1
    12     6    19    1
    13    12    16   ar
    14    13    16   ar
    15    12    14   ar
    16     1    12    1
    17    13    15   ar
    18     2    13    1
    19    14    17   ar
    20     3    14    1
    21    15    17   ar
    22     4    15    1
    23    17    24    1
    24    11    24    1
@<TRIPOS>SUBSTRUCTURE
     1 lig         1 TEMP              0 ****  ****    0 ROOT


########## Name:		ligand
########## HA_RMSDs:		12.5758
########## HA_RMSDh:		12.4976
########## HA_RMSDm:		10.1902
########## Cluster Size:	3
##########    Grid Score:          -21.213884
##########      Grid_vdw:          -14.756188
##########       Grid_es:           -6.457696
##########    Int_energy:            1.067256

@<TRIPOS>MOLECULE
ligand
 24 24 1 0 0
SMALL
No Charge or Current Charge


@<TRIPOS>ATOM
      1 H1         13.4867    9.7052   21.1533 H       1  lig         0.1313
      2 H2         11.7271    7.0429   23.9912 H       1  lig         0.1473
      3 H3         15.6605    8.6968   21.6093 H       1  lig         0.1394
      4 H4         13.9290    6.0554   24.4947 H       1  lig         0.1574
      5 H5         10.4441    8.7636   23.0726 H       1  lig         0.1170
      6 H6         11.1710   10.1519   22.3299 H       1  lig         0.0678
      7 H7         11.0912    7.9279   20.4102 H       1  lig         0.0912
      8 H8         11.3608   10.3009   19.9139 H       1  lig         0.4249
      9 H9          9.9746    9.7445   19.1774 H       1  lig         0.4256
     10 H10         9.8654   10.6361   20.5854 H       1  lig         0.4835
     11 H11        16.5594    6.7781   22.3640 H       1  lig         0.4236
     12 C1         13.5701    8.9103   21.8919 C.ar    1  lig        -0.1098
     13 C2         12.6104    7.4127   23.4726 C.ar    1  lig        -0.0948
     14 C3         14.7870    8.3399   22.1458 C.ar    1  lig        -0.2079
     15 C4         13.8408    6.8567   23.7661 C.ar    1  lig        -0.1468
     16 C5         12.4761    8.4527   22.5601 C.ar    1  lig        -0.1510
     17 C6         14.9449    7.3550   23.0845 C.ar    1  lig         0.1263
     18 C7          9.1189    8.0864   21.1491 C.2     1  lig         0.9365
     19 C8         11.1186    9.0632   22.2678 C.3     1  lig        -0.0459
     20 C9         10.4914    8.6794   20.9271 C.3     1  lig        -0.0743
     21 N1         10.4313    9.8859   20.1029 N.4     1  lig        -0.8330
     22 O1          8.1982    8.8999   21.1168 O.co2   1  lig        -0.7110
     23 O2          8.9194    6.8599   21.3829 O.co2   1  lig        -0.8016
     24 O3         16.1062    6.8610   23.2539 O.3     1  lig        -0.4958
@<TRIPOS>BOND
     1    20    21    1
     2     8    21    1
     3     9    21    1
     4    10    21    1
     5    18    20    1
     6    19    20    1
     7     7    20    1
     8    18    23    1
     9    18    22    1
    10    16    19    1
    11     5    19    1
    12     6    19    1
    13    12    16   ar
    14    13    16   ar
    15    12    14   ar
    16     1    12    1
    17    13    15   ar
    18     2    13    1
    19    14    17   ar
    20     3    14    1
    21    15    17   ar
    22     4    15    1
    23    17    24    1
    24    11    24    1
@<TRIPOS>SUBSTRUCTURE
     1 lig         1 TEMP              0 ****  ****    0 ROOT


########## Name:		ligand
########## HA_RMSDs:		13.3580
########## HA_RMSDh:		13.3380
########## HA_RMSDm:		11.7852
########## Cluster Size:	4
##########    Grid Score:          -21.106926
##########      Grid_vdw:          -19.742870
##########       Grid_es:           -1.364056
##########    Int_energy:            2.898098

@<TRIPOS>MOLECULE
ligand
 24 24 1 0 0
SMALL
No Charge or Current Charge


@<TRIPOS>ATOM
      1 H1         10.4016    9.1349   21.7117 H       1  lig         0.1313
      2 H2          7.2286    9.1382   24.5698 H       1  lig         0.1473
      3 H3         11.0084   11.3836   22.4365 H       1  lig         0.1394
      4 H4          7.8041   11.4306   25.2702 H       1  lig         0.1574
      5 H5          9.2912    7.1364   22.2337 H       1  lig         0.1170
      6 H6          8.1301    6.9928   23.5138 H       1  lig         0.0678
      7 H7          6.4275    8.1443   21.8826 H       1  lig         0.0912
      8 H8          6.4366    5.7876   22.5118 H       1  lig         0.4249
      9 H9          6.0640    5.9179   20.8939 H       1  lig         0.4256
     10 H10         7.6015    5.4587   21.3568 H       1  lig         0.4835
     11 H11        10.4232   13.0935   23.4796 H       1  lig         0.4236
     12 C1          9.8205    9.6283   22.4882 C.ar    1  lig        -0.1098
     13 C2          8.0629    9.6499   24.0923 C.ar    1  lig        -0.0948
     14 C3         10.1617   10.8872   22.8999 C.ar    1  lig        -0.2079
     15 C4          8.3739   10.9368   24.4878 C.ar    1  lig        -0.1468
     16 C5          8.7640    9.0060   23.0792 C.ar    1  lig        -0.1510
     17 C6          9.4447   11.5574   23.8553 C.ar    1  lig         0.1263
     18 C7          7.7631    7.9377   20.2595 C.2     1  lig         0.9365
     19 C8          8.3928    7.6005   22.6457 C.3     1  lig        -0.0459
     20 C9          7.2659    7.4975   21.6173 C.3     1  lig        -0.0743
     21 N1          6.8058    6.1095   21.5997 N.4     1  lig        -0.8330
     22 O1          6.8980    8.4113   19.5261 O.co2   1  lig        -0.7110
     23 O2          8.9622    7.8065   19.8805 O.co2   1  lig        -0.8016
     24 O3          9.8328   12.7206   24.1982 O.3     1  lig        -0.4958
@<TRIPOS>BOND
     1    20    21    1
     2     8    21    1
     3     9    21    1
     4    10    21    1
     5    18    20    1
     6    19    20    1
     7     7    20    1
     8    18    23    1
     9    18    22    1
    10    16    19    1
    11     5    19    1
    12     6    19    1
    13    12    16   ar
    14    13    16   ar
    15    12    14   ar
    16     1    12    1
    17    13    15   ar
    18     2    13    1
    19    14    17   ar
    20     3    14    1
    21    15    17   ar
    22     4    15    1
    23    17    24    1
    24    11    24    1
@<TRIPOS>SUBSTRUCTURE
     1 lig         1 TEMP              0 ****  ****    0 ROOT


########## Name:		ligand
########## HA_RMSDs:		15.6240
########## HA_RMSDh:		15.5855
########## HA_RMSDm:		13.3281
########## Cluster Size:	2
##########    Grid Score:          -21.079752
##########      Grid_vdw:          -15.593506
##########       Grid_es:           -5.486246
##########    Int_energy:            2.382005

@<TRIPOS>MOLECULE
ligand
 24 24 1 0 0
SMALL
No Charge or Current Charge


@<TRIPOS>ATOM
      1 H1         25.6379    3.3356   12.1778 H       1  lig         0.1313
      2 H2         25.2560    7.3998   13.4323 H       1  lig         0.1473
      3 H3         27.9527    3.7840   11.5525 H       1  lig         0.1394
      4 H4         27.5783    7.8726   12.7537 H       1  lig         0.1574
      5 H5         23.7856    4.0028   13.4580 H       1  lig         0.1170
      6 H6         23.6288    5.5777   14.1669 H       1  lig         0.0678
      7 H7         23.2443    5.6734   11.2320 H       1  lig         0.0912
      8 H8         22.6860    7.4316   12.8280 H       1  lig         0.4249
      9 H9         21.2914    6.9108   12.0814 H       1  lig         0.4256
     10 H10        21.6412    6.4024   13.6332 H       1  lig         0.4835
     11 H11        29.5074    6.7487   12.2786 H       1  lig         0.4236
     12 C1         26.0485    4.3355   12.3040 C.ar    1  lig        -0.1098
     13 C2         25.8607    6.6025   13.0028 C.ar    1  lig        -0.0948
     14 C3         27.3476    4.5882   11.9588 C.ar    1  lig        -0.2079
     15 C4         27.1593    6.8790   12.6203 C.ar    1  lig        -0.1468
     16 C5         25.2965    5.3449   12.8223 C.ar    1  lig        -0.1510
     17 C6         27.8997    5.8363   12.0758 C.ar    1  lig         0.1263
     18 C7         21.8651    4.2595   11.9798 C.2     1  lig         0.9365
     19 C8         23.8619    5.0679   13.2300 C.3     1  lig        -0.0459
     20 C9         22.7949    5.4312   12.1968 C.3     1  lig        -0.0743
     21 N1         22.0774    6.6050   12.6927 N.4     1  lig        -0.8330
     22 O1         21.4189    4.1641   10.8385 O.co2   1  lig        -0.7110
     23 O2         21.5364    3.4520   12.8956 O.co2   1  lig        -0.8016
     24 O3         29.1206    5.9909   11.7492 O.3     1  lig        -0.4958
@<TRIPOS>BOND
     1    20    21    1
     2     8    21    1
     3     9    21    1
     4    10    21    1
     5    18    20    1
     6    19    20    1
     7     7    20    1
     8    18    23    1
     9    18    22    1
    10    16    19    1
    11     5    19    1
    12     6    19    1
    13    12    16   ar
    14    13    16   ar
    15    12    14   ar
    16     1    12    1
    17    13    15   ar
    18     2    13    1
    19    14    17   ar
    20     3    14    1
    21    15    17   ar
    22     4    15    1
    23    17    24    1
    24    11    24    1
@<TRIPOS>SUBSTRUCTURE
     1 lig         1 TEMP              0 ****  ****    0 ROOT


########## Name:		ligand
########## HA_RMSDs:		13.6669
########## HA_RMSDh:		13.6131
########## HA_RMSDm:		9.7036
########## Cluster Size:	5
##########    Grid Score:          -21.048601
##########      Grid_vdw:          -15.935020
##########       Grid_es:           -5.113581
##########    Int_energy:            2.270565

@<TRIPOS>MOLECULE
ligand
 24 24 1 0 0
SMALL
No Charge or Current Charge


@<TRIPOS>ATOM
      1 H1         15.0097   20.3199   31.2583 H       1  lig         0.1313
      2 H2         18.0091   18.8259   28.6110 H       1  lig         0.1473
      3 H3         13.3677   18.9064   30.1375 H       1  lig         0.1394
      4 H4         16.3444   17.4347   27.4405 H       1  lig         0.1574
      5 H5         17.2131   20.8357   31.6572 H       1  lig         0.1170
      6 H6         18.5209   19.9513   30.9397 H       1  lig         0.0678
      7 H7         17.9902   21.6630   28.8624 H       1  lig         0.0912
      8 H8         20.1099   21.2708   30.0039 H       1  lig         0.4249
      9 H9         19.8697   22.9115   29.8499 H       1  lig         0.4256
     10 H10        19.5951   22.1673   31.3195 H       1  lig         0.4835
     11 H11        13.0231   17.3820   28.7991 H       1  lig         0.4236
     12 C1         15.3146   19.6971   30.4196 C.ar    1  lig        -0.1098
     13 C2         16.9706   18.8458   28.9379 C.ar    1  lig        -0.0948
     14 C3         14.3968   18.8999   29.7928 C.ar    1  lig        -0.2079
     15 C4         16.0440   18.0668   28.2717 C.ar    1  lig        -0.1468
     16 C5         16.6060   19.6781   29.9900 C.ar    1  lig        -0.1510
     17 C6         14.7285   18.1190   28.7174 C.ar    1  lig         0.1263
     18 C7         17.1974   22.9650   30.3243 C.2     1  lig         0.9365
     19 C8         17.6355   20.5411   30.6944 C.3     1  lig        -0.0459
     20 C9         18.0774   21.7969   29.9422 C.3     1  lig        -0.0743
     21 N1         19.4792   22.0452   30.2766 N.4     1  lig        -0.8330
     22 O1         17.7895   24.0357   30.4413 O.co2   1  lig        -0.7110
     23 O2         15.9562   22.8604   30.5417 O.co2   1  lig        -0.8016
     24 O3         13.8232   17.3911   28.1959 O.3     1  lig        -0.4958
@<TRIPOS>BOND
     1    20    21    1
     2     8    21    1
     3     9    21    1
     4    10    21    1
     5    18    20    1
     6    19    20    1
     7     7    20    1
     8    18    23    1
     9    18    22    1
    10    16    19    1
    11     5    19    1
    12     6    19    1
    13    12    16   ar
    14    13    16   ar
    15    12    14   ar
    16     1    12    1
    17    13    15   ar
    18     2    13    1
    19    14    17   ar
    20     3    14    1
    21    15    17   ar
    22     4    15    1
    23    17    24    1
    24    11    24    1
@<TRIPOS>SUBSTRUCTURE
     1 lig         1 TEMP              0 ****  ****    0 ROOT


########## Name:		ligand
########## HA_RMSDs:		14.5544
########## HA_RMSDh:		14.5126
########## HA_RMSDm:		12.2050
########## Cluster Size:	6
##########    Grid Score:          -20.935455
##########      Grid_vdw:          -15.760346
##########       Grid_es:           -5.175110
##########    Int_energy:            4.037724

@<TRIPOS>MOLECULE
ligand
 24 24 1 0 0
SMALL
No Charge or Current Charge


@<TRIPOS>ATOM
      1 H1          8.3809   10.1405   22.8306 H       1  lig         0.1313
      2 H2          8.9872    5.9187   23.0446 H       1  lig         0.1473
      3 H3          6.3034    9.8691   24.0798 H       1  lig         0.1394
      4 H4          6.8627    5.6319   24.2616 H       1  lig         0.1574
      5 H5         10.5575    9.1469   22.4052 H       1  lig         0.1170
      6 H6         10.8130    7.4320   22.3704 H       1  lig         0.0678
      7 H7         10.6436    7.4734   20.1027 H       1  lig         0.0912
      8 H8         11.3569    9.7946   20.3342 H       1  lig         0.4249
      9 H9         10.2945    9.6760   19.0571 H       1  lig         0.4256
     10 H10         9.7693   10.2893   20.5189 H       1  lig         0.4835
     11 H11         5.0560    6.7406   24.9371 H       1  lig         0.4236
     12 C1          8.0573    9.1465   23.1329 C.ar    1  lig        -0.1098
     13 C2          8.3778    6.7925   23.2702 C.ar    1  lig        -0.0948
     14 C3          6.8954    8.9922   23.8377 C.ar    1  lig        -0.2079
     15 C4          7.1858    6.6207   23.9477 C.ar    1  lig        -0.1468
     16 C5          8.8013    8.0448   22.8402 C.ar    1  lig        -0.1510
     17 C6          6.4353    7.7591   24.2171 C.ar    1  lig         0.1263
     18 C7          8.5716    7.8810   20.1428 C.2     1  lig         0.9365
     19 C8         10.1033    8.2089   22.0794 C.3     1  lig        -0.0459
     20 C9          9.9862    8.2183   20.5549 C.3     1  lig        -0.0743
     21 N1         10.3827    9.5458   20.0868 N.4     1  lig        -0.8330
     22 O1          8.4009    6.7108   19.8081 O.co2   1  lig        -0.7110
     23 O2          7.6350    8.7297   20.1081 O.co2   1  lig        -0.8016
     24 O3          5.3531    7.6962   24.8851 O.3     1  lig        -0.4958
@<TRIPOS>BOND
     1    20    21    1
     2     8    21    1
     3     9    21    1
     4    10    21    1
     5    18    20    1
     6    19    20    1
     7     7    20    1
     8    18    23    1
     9    18    22    1
    10    16    19    1
    11     5    19    1
    12     6    19    1
    13    12    16   ar
    14    13    16   ar
    15    12    14   ar
    16     1    12    1
    17    13    15   ar
    18     2    13    1
    19    14    17   ar
    20     3    14    1
    21    15    17   ar
    22     4    15    1
    23    17    24    1
    24    11    24    1
@<TRIPOS>SUBSTRUCTURE
     1 lig         1 TEMP              0 ****  ****    0 ROOT


########## Name:		ligand
########## HA_RMSDs:		14.4813
########## HA_RMSDh:		14.4771
########## HA_RMSDm:		12.6117
########## Cluster Size:	2
##########    Grid Score:          -20.918774
##########      Grid_vdw:          -16.382935
##########       Grid_es:           -4.535840
##########    Int_energy:            4.178318

@<TRIPOS>MOLECULE
ligand
 24 24 1 0 0
SMALL
No Charge or Current Charge


@<TRIPOS>ATOM
      1 H1         25.5275    4.6404   13.0191 H       1  lig         0.1313
      2 H2         21.8070    6.4500   11.9607 H       1  lig         0.1473
      3 H3         26.2437    6.7628   13.9849 H       1  lig         0.1394
      4 H4         22.5451    8.6115   12.8880 H       1  lig         0.1574
      5 H5         22.4548    4.3211   11.0333 H       1  lig         0.1170
      6 H6         24.0042    3.5973   11.3211 H       1  lig         0.0678
      7 H7         22.4142    2.1297   12.3628 H       1  lig         0.0912
      8 H8         20.5826    3.7407   12.3607 H       1  lig         0.4249
      9 H9         20.7160    3.0696   13.8791 H       1  lig         0.4256
     10 H10        21.3091    4.6048   13.5955 H       1  lig         0.4835
     11 H11        25.7135    8.6635   14.5715 H       1  lig         0.4236
     12 C1         24.8664    5.5039   12.9785 C.ar    1  lig        -0.1098
     13 C2         22.7982    6.5313   12.4042 C.ar    1  lig        -0.0948
     14 C3         25.2636    6.6937   13.5236 C.ar    1  lig        -0.2079
     15 C4         23.2049    7.7486   12.9161 C.ar    1  lig        -0.1468
     16 C5         23.6325    5.4194   12.4098 C.ar    1  lig        -0.1510
     17 C6         24.4765    7.8135   13.4735 C.ar    1  lig         0.1263
     18 C7         23.4244    2.9561   14.0235 C.2     1  lig         0.9365
     19 C8         23.1741    4.0975   11.8238 C.3     1  lig        -0.0459
     20 C9         22.5376    3.1178   12.8101 C.3     1  lig        -0.0743
     21 N1         21.2207    3.6420   13.1701 N.4     1  lig        -0.8330
     22 O1         23.1730    3.7260   14.9479 O.co2   1  lig        -0.7110
     23 O2         24.3737    2.1232   14.0865 O.co2   1  lig        -0.8016
     24 O3         24.9076    8.8811   14.0172 O.3     1  lig        -0.4958
@<TRIPOS>BOND
     1    20    21    1
     2     8    21    1
     3     9    21    1
     4    10    21    1
     5    18    20    1
     6    19    20    1
     7     7    20    1
     8    18    23    1
     9    18    22    1
    10    16    19    1
    11     5    19    1
    12     6    19    1
    13    12    16   ar
    14    13    16   ar
    15    12    14   ar
    16     1    12    1
    17    13    15   ar
    18     2    13    1
    19    14    17   ar
    20     3    14    1
    21    15    17   ar
    22     4    15    1
    23    17    24    1
    24    11    24    1
@<TRIPOS>SUBSTRUCTURE
     1 lig         1 TEMP              0 ****  ****    0 ROOT


########## Name:		ligand
########## HA_RMSDs:		11.9948
########## HA_RMSDh:		11.9828
########## HA_RMSDm:		9.9108
########## Cluster Size:	8
##########    Grid Score:          -20.912395
##########      Grid_vdw:          -17.005289
##########       Grid_es:           -3.907106
##########    Int_energy:            2.961292

@<TRIPOS>MOLECULE
ligand
 24 24 1 0 0
SMALL
No Charge or Current Charge


@<TRIPOS>ATOM
      1 H1         11.2970   12.0869   23.1430 H       1  lig         0.1313
      2 H2          8.4428    8.9387   22.7198 H       1  lig         0.1473
      3 H3         10.0054   12.9567   25.0206 H       1  lig         0.1394
      4 H4          7.1053    9.8426   24.5828 H       1  lig         0.1574
      5 H5         10.3104    8.9531   21.3719 H       1  lig         0.1170
      6 H6         10.6250   10.5446   20.7591 H       1  lig         0.0678
      7 H7         12.6629   10.5862   22.4313 H       1  lig         0.0912
      8 H8         12.7922   10.4172   20.0013 H       1  lig         0.4249
      9 H9         13.9301    9.4074   20.6788 H       1  lig         0.4256
     10 H10        12.5089    8.7700   20.0766 H       1  lig         0.4835
     11 H11         7.2371   11.3057   26.2705 H       1  lig         0.4236
     12 C1         10.3777   11.5887   23.4442 C.ar    1  lig        -0.1098
     13 C2          8.7783    9.8397   23.2312 C.ar    1  lig        -0.0948
     14 C3          9.6543   12.0715   24.4998 C.ar    1  lig        -0.2079
     15 C4          8.0185   10.3417   24.2705 C.ar    1  lig        -0.1468
     16 C5          9.9385   10.4727   22.8004 C.ar    1  lig        -0.1510
     17 C6          8.4783   11.4932   24.8985 C.ar    1  lig         0.1263
     18 C7         12.4624    8.5127   22.7798 C.2     1  lig         0.9365
     19 C8         10.7468    9.9164   21.6437 C.3     1  lig        -0.0459
     20 C9         12.2410    9.7267   21.9070 C.3     1  lig        -0.0743
     21 N1         12.9066    9.5891   20.6121 N.4     1  lig        -0.8330
     22 O1         13.6264    8.1212   22.8271 O.co2   1  lig        -0.7110
     23 O2         11.5310    7.9162   23.3927 O.co2   1  lig        -0.8016
     24 O3          7.8689   11.9897   25.9002 O.3     1  lig        -0.4958
@<TRIPOS>BOND
     1    20    21    1
     2     8    21    1
     3     9    21    1
     4    10    21    1
     5    18    20    1
     6    19    20    1
     7     7    20    1
     8    18    23    1
     9    18    22    1
    10    16    19    1
    11     5    19    1
    12     6    19    1
    13    12    16   ar
    14    13    16   ar
    15    12    14   ar
    16     1    12    1
    17    13    15   ar
    18     2    13    1
    19    14    17   ar
    20     3    14    1
    21    15    17   ar
    22     4    15    1
    23    17    24    1
    24    11    24    1
@<TRIPOS>SUBSTRUCTURE
     1 lig         1 TEMP              0 ****  ****    0 ROOT


########## Name:		ligand
########## HA_RMSDs:		11.1415
########## HA_RMSDh:		11.0429
########## HA_RMSDm:		8.8196
########## Cluster Size:	1
##########    Grid Score:          -20.878178
##########      Grid_vdw:          -16.287470
##########       Grid_es:           -4.590709
##########    Int_energy:            1.661971

@<TRIPOS>MOLECULE
ligand
 24 24 1 0 0
SMALL
No Charge or Current Charge


@<TRIPOS>ATOM
      1 H1         13.0836    8.5340   23.3173 H       1  lig         0.1313
      2 H2         15.3867   12.1205   23.5802 H       1  lig         0.1473
      3 H3         15.0573    7.3708   22.4794 H       1  lig         0.1394
      4 H4         17.3706   10.9635   22.6845 H       1  lig         0.1574
      5 H5         12.7512   10.8155   25.0548 H       1  lig         0.1170
      6 H6         13.0757   12.2030   24.0665 H       1  lig         0.0678
      7 H7         11.3391    9.8323   23.2038 H       1  lig         0.0912
      8 H8         12.5284   10.9300   21.3788 H       1  lig         0.4249
      9 H9         10.9150   11.3351   21.2990 H       1  lig         0.4256
     10 H10        12.0157   12.4298   21.9147 H       1  lig         0.4835
     11 H11        18.0051    9.0305   21.7344 H       1  lig         0.4236
     12 C1         14.0148    9.0797   23.1781 C.ar    1  lig        -0.1098
     13 C2         15.3191   11.0647   23.3224 C.ar    1  lig        -0.0948
     14 C3         15.1241    8.4287   22.7131 C.ar    1  lig        -0.2079
     15 C4         16.4350   10.4265   22.8156 C.ar    1  lig        -0.1468
     16 C5         14.1061   10.4040   23.4790 C.ar    1  lig        -0.1510
     17 C6         16.3101    9.0792   22.4978 C.ar    1  lig         0.1263
     18 C7         10.4397   11.5874   23.9598 C.2     1  lig         0.9365
     19 C8         12.8873   11.1288   24.0177 C.3     1  lig        -0.0459
     20 C9         11.5832   10.8950   23.2543 C.3     1  lig        -0.0743
     21 N1         11.7663   11.4036   21.8954 N.4     1  lig        -0.8330
     22 O1          9.5274   10.8420   24.3100 O.co2   1  lig        -0.7110
     23 O2         10.3943   12.8361   24.1531 O.co2   1  lig        -0.8016
     24 O3         17.3041    8.4027   22.0786 O.3     1  lig        -0.4958
@<TRIPOS>BOND
     1    20    21    1
     2     8    21    1
     3     9    21    1
     4    10    21    1
     5    18    20    1
     6    19    20    1
     7     7    20    1
     8    18    23    1
     9    18    22    1
    10    16    19    1
    11     5    19    1
    12     6    19    1
    13    12    16   ar
    14    13    16   ar
    15    12    14   ar
    16     1    12    1
    17    13    15   ar
    18     2    13    1
    19    14    17   ar
    20     3    14    1
    21    15    17   ar
    22     4    15    1
    23    17    24    1
    24    11    24    1
@<TRIPOS>SUBSTRUCTURE
     1 lig         1 TEMP              0 ****  ****    0 ROOT


########## Name:		ligand
########## HA_RMSDs:		14.7091
########## HA_RMSDh:		14.6547
########## HA_RMSDm:		13.2640
########## Cluster Size:	3
##########    Grid Score:          -20.777199
##########      Grid_vdw:          -14.997227
##########       Grid_es:           -5.779972
##########    Int_energy:            4.024117

@<TRIPOS>MOLECULE
ligand
 24 24 1 0 0
SMALL
No Charge or Current Charge


@<TRIPOS>ATOM
      1 H1         21.8478    4.5230   12.4931 H       1  lig         0.1313
      2 H2         25.8043    5.8460   13.4058 H       1  lig         0.1473
      3 H3         21.2949    6.7878   11.7752 H       1  lig         0.1394
      4 H4         25.2365    8.1480   12.7312 H       1  lig         0.1574
      5 H5         23.6142    2.9510   12.8405 H       1  lig         0.1170
      6 H6         25.2470    3.4157   13.1947 H       1  lig         0.0678
      7 H7         23.5082    2.3431   15.0500 H       1  lig         0.0912
      8 H8         22.1768    4.3866   15.0098 H       1  lig         0.4249
      9 H9         22.9197    4.2497   16.4940 H       1  lig         0.4256
     10 H10        23.5322    5.3052   15.3540 H       1  lig         0.4835
     11 H11        21.8959    8.9284   12.1002 H       1  lig         0.4236
     12 C1         22.5980    5.3088   12.5560 C.ar    1  lig        -0.1098
     13 C2         24.7987    6.0668   13.0512 C.ar    1  lig        -0.0948
     14 C3         22.2921    6.5783   12.1494 C.ar    1  lig        -0.2079
     15 C4         24.4886    7.3614   12.6808 C.ar    1  lig        -0.1468
     16 C5         23.8527    5.0488   13.0153 C.ar    1  lig        -0.1510
     17 C6         23.1952    7.6047   12.2339 C.ar    1  lig         0.1263
     18 C7         25.3075    3.2716   15.6509 C.2     1  lig         0.9365
     19 C8         24.2082    3.6385   13.4461 C.3     1  lig        -0.0459
     20 C9         23.9830    3.3179   14.9242 C.3     1  lig        -0.0743
     21 N1         23.1019    4.3479   15.4731 N.4     1  lig        -0.8330
     22 O1         25.3313    2.5226   16.6252 O.co2   1  lig        -0.7110
     23 O2         26.3103    3.9655   15.3166 O.co2   1  lig        -0.8016
     24 O3         22.8428    8.7564   11.8210 O.3     1  lig        -0.4958
@<TRIPOS>BOND
     1    20    21    1
     2     8    21    1
     3     9    21    1
     4    10    21    1
     5    18    20    1
     6    19    20    1
     7     7    20    1
     8    18    23    1
     9    18    22    1
    10    16    19    1
    11     5    19    1
    12     6    19    1
    13    12    16   ar
    14    13    16   ar
    15    12    14   ar
    16     1    12    1
    17    13    15   ar
    18     2    13    1
    19    14    17   ar
    20     3    14    1
    21    15    17   ar
    22     4    15    1
    23    17    24    1
    24    11    24    1
@<TRIPOS>SUBSTRUCTURE
     1 lig         1 TEMP              0 ****  ****    0 ROOT


########## Name:		ligand
########## HA_RMSDs:		12.2973
########## HA_RMSDh:		12.2229
########## HA_RMSDm:		10.0162
########## Cluster Size:	8
##########    Grid Score:          -20.706499
##########      Grid_vdw:          -17.977158
##########       Grid_es:           -2.729341
##########    Int_energy:            1.332692

@<TRIPOS>MOLECULE
ligand
 24 24 1 0 0
SMALL
No Charge or Current Charge


@<TRIPOS>ATOM
      1 H1         12.7283   12.4257   23.7195 H       1  lig         0.1313
      2 H2          8.8391   10.7490   23.1720 H       1  lig         0.1473
      3 H3         13.5323   11.0795   21.8509 H       1  lig         0.1394
      4 H4          9.6575    9.3472   21.3167 H       1  lig         0.1574
      5 H5         10.7583   13.4569   24.6891 H       1  lig         0.1170
      6 H6          9.1778   12.7524   24.5748 H       1  lig         0.0678
      7 H7         11.2777   11.2612   26.1757 H       1  lig         0.0912
      8 H8          9.0767   10.3107   25.7259 H       1  lig         0.4249
      9 H9          9.1956   10.6651   27.3488 H       1  lig         0.4256
     10 H10         8.3339   11.6787   26.3393 H       1  lig         0.4835
     11 H11        12.4847   10.1084   19.8187 H       1  lig         0.4236
     12 C1         12.0462   11.7512   23.2057 C.ar    1  lig        -0.1098
     13 C2          9.8859   10.8087   22.8779 C.ar    1  lig        -0.0948
     14 C3         12.4933   10.9991   22.1545 C.ar    1  lig        -0.2079
     15 C4         10.3362   10.0146   21.8406 C.ar    1  lig        -0.1468
     16 C5         10.7401   11.6542   23.5765 C.ar    1  lig        -0.1510
     17 C6         11.6783   10.1180   21.4943 C.ar    1  lig         0.1263
     18 C7         10.5669   12.9988   27.1434 C.2     1  lig         0.9365
     19 C8         10.2297   12.5022   24.7260 C.3     1  lig        -0.0459
     20 C9         10.3934   11.8988   26.1214 C.3     1  lig        -0.0743
     21 N1          9.2078   11.0882   26.3970 N.4     1  lig        -0.8330
     22 O1          9.6320   13.1172   27.9324 O.co2   1  lig        -0.7110
     23 O2         11.5716   13.7658   27.1775 O.co2   1  lig        -0.8016
     24 O3         12.1619    9.4639   20.5147 O.3     1  lig        -0.4958
@<TRIPOS>BOND
     1    20    21    1
     2     8    21    1
     3     9    21    1
     4    10    21    1
     5    18    20    1
     6    19    20    1
     7     7    20    1
     8    18    23    1
     9    18    22    1
    10    16    19    1
    11     5    19    1
    12     6    19    1
    13    12    16   ar
    14    13    16   ar
    15    12    14   ar
    16     1    12    1
    17    13    15   ar
    18     2    13    1
    19    14    17   ar
    20     3    14    1
    21    15    17   ar
    22     4    15    1
    23    17    24    1
    24    11    24    1
@<TRIPOS>SUBSTRUCTURE
     1 lig         1 TEMP              0 ****  ****    0 ROOT


########## Name:		ligand
########## HA_RMSDs:		14.0481
########## HA_RMSDh:		14.0230
########## HA_RMSDm:		12.7830
########## Cluster Size:	2
##########    Grid Score:          -20.637329
##########      Grid_vdw:          -14.203472
##########       Grid_es:           -6.433858
##########    Int_energy:            1.262235

@<TRIPOS>MOLECULE
ligand
 24 24 1 0 0
SMALL
No Charge or Current Charge


@<TRIPOS>ATOM
      1 H1         25.5905    5.3274   16.4674 H       1  lig         0.1313
      2 H2         25.5963    7.6127   12.8599 H       1  lig         0.1473
      3 H3         26.3976    7.2904   17.6697 H       1  lig         0.1394
      4 H4         26.4616    9.5847   14.0596 H       1  lig         0.1574
      5 H5         25.7246    4.9453   13.0002 H       1  lig         0.1170
      6 H6         25.1155    4.2375   14.4614 H       1  lig         0.0678
      7 H7         23.5080    6.1067   12.6442 H       1  lig         0.0912
      8 H8         22.9208    6.2435   15.0077 H       1  lig         0.4249
      9 H9         21.7140    5.4356   14.1926 H       1  lig         0.4256
     10 H10        22.8187    4.5763   15.1038 H       1  lig         0.4835
     11 H11        26.4696    9.4860   17.5531 H       1  lig         0.4236
     12 C1         25.7826    6.2519   15.9266 C.ar    1  lig        -0.1098
     13 C2         25.7876    7.5465   13.9299 C.ar    1  lig        -0.0948
     14 C3         26.2304    7.3554   16.5992 C.ar    1  lig        -0.2079
     15 C4         26.2781    8.6555   14.5922 C.ar    1  lig        -0.1468
     16 C5         25.5651    6.3412   14.5858 C.ar    1  lig        -0.1510
     17 C6         26.5102    8.5325   15.9571 C.ar    1  lig         0.1263
     18 C7         23.2745    4.0135   12.4862 C.2     1  lig         0.9365
     19 C8         25.0460    5.1293   13.8356 C.3     1  lig        -0.0459
     20 C9         23.6185    5.2405   13.2992 C.3     1  lig        -0.0743
     21 N1         22.7238    5.3968   14.4454 N.4     1  lig        -0.8330
     22 O1         22.7476    3.1061   13.1263 O.co2   1  lig        -0.7110
     23 O2         23.5307    3.9004   11.2532 O.co2   1  lig        -0.8016
     24 O3         26.9084    9.5218   16.6529 O.3     1  lig        -0.4958
@<TRIPOS>BOND
     1    20    21    1
     2     8    21    1
     3     9    21    1
     4    10    21    1
     5    18    20    1
     6    19    20    1
     7     7    20    1
     8    18    23    1
     9    18    22    1
    10    16    19    1
    11     5    19    1
    12     6    19    1
    13    12    16   ar
    14    13    16   ar
    15    12    14   ar
    16     1    12    1
    17    13    15   ar
    18     2    13    1
    19    14    17   ar
    20     3    14    1
    21    15    17   ar
    22     4    15    1
    23    17    24    1
    24    11    24    1
@<TRIPOS>SUBSTRUCTURE
     1 lig         1 TEMP              0 ****  ****    0 ROOT


########## Name:		ligand
########## HA_RMSDs:		14.2636
########## HA_RMSDh:		14.1744
########## HA_RMSDm:		11.4643
########## Cluster Size:	3
##########    Grid Score:          -20.535616
##########      Grid_vdw:          -16.663239
##########       Grid_es:           -3.872377
##########    Int_energy:            2.150199

@<TRIPOS>MOLECULE
ligand
 24 24 1 0 0
SMALL
No Charge or Current Charge


@<TRIPOS>ATOM
      1 H1         27.4318    6.8526   12.7702 H       1  lig         0.1313
      2 H2         24.5870    7.4943   15.8900 H       1  lig         0.1473
      3 H3         28.9242    5.8111   14.3945 H       1  lig         0.1394
      4 H4         26.1122    6.4902   17.5461 H       1  lig         0.1574
      5 H5         24.9445    8.9602   13.4411 H       1  lig         0.1170
      6 H6         25.4059    7.8198   12.2188 H       1  lig         0.0678
      7 H7         23.0055    7.6353   14.0901 H       1  lig         0.0912
      8 H8         24.1426    5.4791   14.0006 H       1  lig         0.4249
      9 H9         22.7371    5.3910   13.1116 H       1  lig         0.4256
     10 H10        24.2041    5.5536   12.3303 H       1  lig         0.4835
     11 H11        27.9586    5.1675   17.6249 H       1  lig         0.4236
     12 C1         27.1325    6.7849   13.8143 C.ar    1  lig        -0.1098
     13 C2         25.5597    7.1262   15.5672 C.ar    1  lig        -0.0948
     14 C3         27.9653    6.1970   14.7261 C.ar    1  lig        -0.2079
     15 C4         26.4098    6.5703   16.5041 C.ar    1  lig        -0.1468
     16 C5         25.9270    7.2585   14.2330 C.ar    1  lig        -0.1510
     17 C6         27.6426    6.1122   16.0545 C.ar    1  lig         0.1263
     18 C7         22.8185    7.8657   11.9990 C.2     1  lig         0.9365
     19 C8         24.9868    7.8908   13.2244 C.3     1  lig        -0.0459
     20 C9         23.5632    7.3333   13.2017 C.3     1  lig        -0.0743
     21 N1         23.6577    5.8742   13.1755 N.4     1  lig        -0.8330
     22 O1         21.9956    7.0882   11.5205 O.co2   1  lig        -0.7110
     23 O2         23.0353    9.0042   11.4932 O.co2   1  lig        -0.8016
     24 O3         28.4620    5.5363   16.8408 O.3     1  lig        -0.4958
@<TRIPOS>BOND
     1    20    21    1
     2     8    21    1
     3     9    21    1
     4    10    21    1
     5    18    20    1
     6    19    20    1
     7     7    20    1
     8    18    23    1
     9    18    22    1
    10    16    19    1
    11     5    19    1
    12     6    19    1
    13    12    16   ar
    14    13    16   ar
    15    12    14   ar
    16     1    12    1
    17    13    15   ar
    18     2    13    1
    19    14    17   ar
    20     3    14    1
    21    15    17   ar
    22     4    15    1
    23    17    24    1
    24    11    24    1
@<TRIPOS>SUBSTRUCTURE
     1 lig         1 TEMP              0 ****  ****    0 ROOT


########## Name:		ligand
########## HA_RMSDs:		14.1652
########## HA_RMSDh:		14.1235
########## HA_RMSDm:		12.0925
########## Cluster Size:	1
##########    Grid Score:          -20.427818
##########      Grid_vdw:          -16.195133
##########       Grid_es:           -4.232685
##########    Int_energy:            2.603090

@<TRIPOS>MOLECULE
ligand
 24 24 1 0 0
SMALL
No Charge or Current Charge


@<TRIPOS>ATOM
      1 H1          9.6762   10.9231   22.7865 H       1  lig         0.1313
      2 H2          6.9096    7.6904   23.1511 H       1  lig         0.1473
      3 H3          9.3946   11.3849   25.1652 H       1  lig         0.1394
      4 H4          6.5809    8.1848   25.5437 H       1  lig         0.1574
      5 H5          7.4922    9.0254   20.8735 H       1  lig         0.1170
      6 H6          9.0518    9.7836   20.8597 H       1  lig         0.0678
      7 H7          9.8091    7.3323   21.8129 H       1  lig         0.0912
      8 H8         10.6489    8.5242   19.8574 H       1  lig         0.4249
      9 H9         10.3523    6.9387   19.4430 H       1  lig         0.4256
     10 H10         9.2706    8.1296   18.9949 H       1  lig         0.4835
     11 H11         7.2554    9.4986   27.1719 H       1  lig         0.4236
     12 C1          8.9906   10.3190   23.3775 C.ar    1  lig        -0.1098
     13 C2          7.4515    8.5185   23.6056 C.ar    1  lig        -0.0948
     14 C3          8.8346   10.5727   24.7124 C.ar    1  lig        -0.2079
     15 C4          7.2560    8.7912   24.9460 C.ar    1  lig        -0.1468
     16 C5          8.2936    9.2933   22.8163 C.ar    1  lig        -0.1510
     17 C6          7.9645    9.8559   25.4903 C.ar    1  lig         0.1263
     18 C7          8.0745    6.5764   20.8745 C.2     1  lig         0.9365
     19 C8          8.4781    8.9896   21.3416 C.3     1  lig        -0.0459
     20 C9          9.1326    7.6465   21.0160 C.3     1  lig        -0.0743
     21 N1          9.8998    7.8135   19.7823 N.4     1  lig        -0.8330
     22 O1          8.3027    5.5443   21.5016 O.co2   1  lig        -0.7110
     23 O2          7.0476    6.7039   20.1477 O.co2   1  lig        -0.8016
     24 O3          7.8854   10.1398   26.7290 O.3     1  lig        -0.4958
@<TRIPOS>BOND
     1    20    21    1
     2     8    21    1
     3     9    21    1
     4    10    21    1
     5    18    20    1
     6    19    20    1
     7     7    20    1
     8    18    23    1
     9    18    22    1
    10    16    19    1
    11     5    19    1
    12     6    19    1
    13    12    16   ar
    14    13    16   ar
    15    12    14   ar
    16     1    12    1
    17    13    15   ar
    18     2    13    1
    19    14    17   ar
    20     3    14    1
    21    15    17   ar
    22     4    15    1
    23    17    24    1
    24    11    24    1
@<TRIPOS>SUBSTRUCTURE
     1 lig         1 TEMP              0 ****  ****    0 ROOT


########## Name:		ligand
########## HA_RMSDs:		15.5750
########## HA_RMSDh:		15.5350
########## HA_RMSDm:		12.8013
########## Cluster Size:	3
##########    Grid Score:          -20.301823
##########      Grid_vdw:          -11.596209
##########       Grid_es:           -8.705613
##########    Int_energy:            3.182173

@<TRIPOS>MOLECULE
ligand
 24 24 1 0 0
SMALL
No Charge or Current Charge


@<TRIPOS>ATOM
      1 H1         25.7951    7.3957   14.1263 H       1  lig         0.1313
      2 H2         25.1296    4.1913   11.3829 H       1  lig         0.1473
      3 H3         28.1228    7.4843   13.4021 H       1  lig         0.1394
      4 H4         27.4932    4.2409   10.6846 H       1  lig         0.1574
      5 H5         23.7067    6.5547   13.9405 H       1  lig         0.1170
      6 H6         23.2151    5.9275   12.4003 H       1  lig         0.0678
      7 H7         24.0400    3.5845   13.6079 H       1  lig         0.0912
      8 H8         21.9277    4.0606   12.4847 H       1  lig         0.4249
      9 H9         21.6139    3.3288   13.9474 H       1  lig         0.4256
     10 H10        21.4151    4.9791   13.7858 H       1  lig         0.4835
     11 H11        29.4459    6.9528   11.7539 H       1  lig         0.4236
     12 C1         26.1552    6.6949   13.3756 C.ar    1  lig        -0.1098
     13 C2         25.8059    4.9149   11.8354 C.ar    1  lig        -0.0948
     14 C3         27.4586    6.7458   12.9643 C.ar    1  lig        -0.2079
     15 C4         27.1303    4.9309   11.4415 C.ar    1  lig        -0.1468
     16 C5         25.3238    5.7735   12.8166 C.ar    1  lig        -0.1510
     17 C6         27.9630    5.8681   12.0415 C.ar    1  lig         0.1263
     18 C7         23.5412    4.5482   15.4198 C.2     1  lig         0.9365
     19 C8         23.8708    5.7253   13.2495 C.3     1  lig        -0.0459
     20 C9         23.4187    4.4266   13.9182 C.3     1  lig        -0.0743
     21 N1         22.0382    4.1726   13.5080 N.4     1  lig        -0.8330
     22 O1         23.7832    3.4927   16.0011 O.co2   1  lig        -0.7110
     23 O2         23.3784    5.6344   16.0463 O.co2   1  lig        -0.8016
     24 O3         29.1827    5.9877   11.6962 O.3     1  lig        -0.4958
@<TRIPOS>BOND
     1    20    21    1
     2     8    21    1
     3     9    21    1
     4    10    21    1
     5    18    20    1
     6    19    20    1
     7     7    20    1
     8    18    23    1
     9    18    22    1
    10    16    19    1
    11     5    19    1
    12     6    19    1
    13    12    16   ar
    14    13    16   ar
    15    12    14   ar
    16     1    12    1
    17    13    15   ar
    18     2    13    1
    19    14    17   ar
    20     3    14    1
    21    15    17   ar
    22     4    15    1
    23    17    24    1
    24    11    24    1
@<TRIPOS>SUBSTRUCTURE
     1 lig         1 TEMP              0 ****  ****    0 ROOT


########## Name:		ligand
########## HA_RMSDs:		12.5197
########## HA_RMSDh:		12.4378
########## HA_RMSDm:		10.8171
########## Cluster Size:	4
##########    Grid Score:          -20.239185
##########      Grid_vdw:          -17.156460
##########       Grid_es:           -3.082726
##########    Int_energy:            2.359850

@<TRIPOS>MOLECULE
ligand
 24 24 1 0 0
SMALL
No Charge or Current Charge


@<TRIPOS>ATOM
      1 H1          7.8121    9.5935   23.6496 H       1  lig         0.1313
      2 H2         11.3484   11.1197   21.8050 H       1  lig         0.1473
      3 H3          7.5334    8.0661   21.7683 H       1  lig         0.1394
      4 H4         11.0434    9.6153   19.8761 H       1  lig         0.1574
      5 H5         10.0830   12.3742   23.6091 H       1  lig         0.1170
      6 H6          8.8171   11.5946   24.5019 H       1  lig         0.0678
      7 H7         10.6924    9.8916   25.2740 H       1  lig         0.0912
      8 H8          9.5667   11.5468   26.6680 H       1  lig         0.4249
      9 H9         11.1845   11.5125   27.0620 H       1  lig         0.4256
     10 H10        10.5887   12.7479   26.1093 H       1  lig         0.4835
     11 H11         9.1394    8.3823   18.8853 H       1  lig         0.4236
     12 C1          8.5241    9.6129   22.8270 C.ar    1  lig        -0.1098
     13 C2         10.4951   10.4434   21.7838 C.ar    1  lig        -0.0948
     14 C3          8.3729    8.7540   21.7733 C.ar    1  lig        -0.2079
     15 C4         10.3298    9.6082   20.6955 C.ar    1  lig        -0.1468
     16 C5          9.5840   10.4669   22.8335 C.ar    1  lig        -0.1510
     17 C6          9.2289    8.7597   20.7041 C.ar    1  lig         0.1263
     18 C7         12.1927   11.1964   24.5615 C.2     1  lig         0.9365
     19 C8          9.7730   11.4066   24.0092 C.3     1  lig        -0.0459
     20 C9         10.7867   10.9584   25.0625 C.3     1  lig        -0.0743
     21 N1         10.5159   11.7094   26.2878 N.4     1  lig        -0.8330
     22 O1         12.9474   10.2331   24.6764 O.co2   1  lig        -0.7110
     23 O2         12.5864   12.3014   24.0895 O.co2   1  lig        -0.8016
     24 O3          9.0331    7.9194   19.7676 O.3     1  lig        -0.4958
@<TRIPOS>BOND
     1    20    21    1
     2     8    21    1
     3     9    21    1
     4    10    21    1
     5    18    20    1
     6    19    20    1
     7     7    20    1
     8    18    23    1
     9    18    22    1
    10    16    19    1
    11     5    19    1
    12     6    19    1
    13    12    16   ar
    14    13    16   ar
    15    12    14   ar
    16     1    12    1
    17    13    15   ar
    18     2    13    1
    19    14    17   ar
    20     3    14    1
    21    15    17   ar
    22     4    15    1
    23    17    24    1
    24    11    24    1
@<TRIPOS>SUBSTRUCTURE
     1 lig         1 TEMP              0 ****  ****    0 ROOT


########## Name:		ligand
########## HA_RMSDs:		13.9740
########## HA_RMSDh:		13.9298
########## HA_RMSDm:		11.6001
########## Cluster Size:	2
##########    Grid Score:          -20.140333
##########      Grid_vdw:          -18.878031
##########       Grid_es:           -1.262302
##########    Int_energy:            2.259872

@<TRIPOS>MOLECULE
ligand
 24 24 1 0 0
SMALL
No Charge or Current Charge


@<TRIPOS>ATOM
      1 H1          8.8558    7.8742   23.8924 H       1  lig         0.1313
      2 H2          9.6101    9.6606   20.0876 H       1  lig         0.1473
      3 H3          7.2373    6.3878   22.8333 H       1  lig         0.1394
      4 H4          7.9378    8.1971   19.0206 H       1  lig         0.1574
      5 H5         10.7790    9.2460   23.5476 H       1  lig         0.1170
      6 H6         11.1658    9.9801   22.0249 H       1  lig         0.0678
      7 H7          9.3335   11.6982   22.4105 H       1  lig         0.0912
      8 H8         11.6624   12.0869   23.0228 H       1  lig         0.4249
      9 H9         10.6745   12.8118   24.1507 H       1  lig         0.4256
     10 H10        11.4180   11.3602   24.5099 H       1  lig         0.4835
     11 H11         6.3437    5.7409   21.1194 H       1  lig         0.4236
     12 C1          8.6602    7.9596   22.8253 C.ar    1  lig        -0.1098
     13 C2          9.0692    8.9356   20.6940 C.ar    1  lig        -0.0948
     14 C3          7.7569    7.1241   22.2282 C.ar    1  lig        -0.2079
     15 C4          8.1297    8.1239   20.0877 C.ar    1  lig        -0.1468
     16 C5          9.3164    8.8747   22.0606 C.ar    1  lig        -0.1510
     17 C6          7.4594    7.2115   20.8940 C.ar    1  lig         0.1263
     18 C7          8.7516   10.8999   24.2773 C.2     1  lig         0.9365
     19 C8         10.3373    9.7896   22.7099 C.3     1  lig        -0.0459
     20 C9          9.8027   11.1298   23.2157 C.3     1  lig        -0.0743
     21 N1         10.9366   11.8932   23.7353 N.4     1  lig        -0.8330
     22 O1          9.1944   10.7664   25.4161 O.co2   1  lig        -0.7110
     23 O2          7.5150   10.8162   24.0268 O.co2   1  lig        -0.8016
     24 O3          6.6193    6.3884   20.4061 O.3     1  lig        -0.4958
@<TRIPOS>BOND
     1    20    21    1
     2     8    21    1
     3     9    21    1
     4    10    21    1
     5    18    20    1
     6    19    20    1
     7     7    20    1
     8    18    23    1
     9    18    22    1
    10    16    19    1
    11     5    19    1
    12     6    19    1
    13    12    16   ar
    14    13    16   ar
    15    12    14   ar
    16     1    12    1
    17    13    15   ar
    18     2    13    1
    19    14    17   ar
    20     3    14    1
    21    15    17   ar
    22     4    15    1
    23    17    24    1
    24    11    24    1
@<TRIPOS>SUBSTRUCTURE
     1 lig         1 TEMP              0 ****  ****    0 ROOT


########## Name:		ligand
########## HA_RMSDs:		15.0723
########## HA_RMSDh:		15.0145
########## HA_RMSDm:		12.7367
########## Cluster Size:	2
##########    Grid Score:          -20.096962
##########      Grid_vdw:          -16.268816
##########       Grid_es:           -3.828147
##########    Int_energy:            3.914469

@<TRIPOS>MOLECULE
ligand
 24 24 1 0 0
SMALL
No Charge or Current Charge


@<TRIPOS>ATOM
      1 H1         24.5162    8.9955   13.2364 H       1  lig         0.1313
      2 H2         25.8713    5.0121   12.5065 H       1  lig         0.1473
      3 H3         22.2428    8.2784   12.7189 H       1  lig         0.1394
      4 H4         23.5844    4.2934   11.9315 H       1  lig         0.1574
      5 H5         27.2050    7.8712   12.3028 H       1  lig         0.1170
      6 H6         26.7323    8.3403   13.9040 H       1  lig         0.0678
      7 H7         27.0728    5.5851   14.2240 H       1  lig         0.0912
      8 H8         27.8605    7.4027   15.6473 H       1  lig         0.4249
      9 H9         29.1308    6.3761   15.3220 H       1  lig         0.4256
     10 H10        29.0093    7.8293   14.5081 H       1  lig         0.4835
     11 H11        21.0730    5.8627   12.9039 H       1  lig         0.4236
     12 C1         24.3271    7.9638   12.9465 C.ar    1  lig        -0.1098
     13 C2         25.0585    5.7360   12.5410 C.ar    1  lig        -0.0948
     14 C3         23.0526    7.5580   12.6606 C.ar    1  lig        -0.2079
     15 C4         23.7812    5.3247   12.2114 C.ar    1  lig        -0.1468
     16 C5         25.3379    7.0545   12.8815 C.ar    1  lig        -0.1510
     17 C6         22.7702    6.2769   12.2667 C.ar    1  lig         0.1263
     18 C7         28.5435    5.8316   12.7282 C.2     1  lig         0.9365
     19 C8         26.7510    7.4898   13.2197 C.3     1  lig        -0.0459
     20 C9         27.6572    6.4081   13.8085 C.3     1  lig        -0.0743
     21 N1         28.4414    7.0201   14.8804 N.4     1  lig        -0.8330
     22 O1         29.6541    5.4733   13.1139 O.co2   1  lig        -0.7110
     23 O2         28.1980    5.7475   11.5148 O.co2   1  lig        -0.8016
     24 O3         21.5570    5.9691   12.0330 O.3     1  lig        -0.4958
@<TRIPOS>BOND
     1    20    21    1
     2     8    21    1
     3     9    21    1
     4    10    21    1
     5    18    20    1
     6    19    20    1
     7     7    20    1
     8    18    23    1
     9    18    22    1
    10    16    19    1
    11     5    19    1
    12     6    19    1
    13    12    16   ar
    14    13    16   ar
    15    12    14   ar
    16     1    12    1
    17    13    15   ar
    18     2    13    1
    19    14    17   ar
    20     3    14    1
    21    15    17   ar
    22     4    15    1
    23    17    24    1
    24    11    24    1
@<TRIPOS>SUBSTRUCTURE
     1 lig         1 TEMP              0 ****  ****    0 ROOT


########## Name:		ligand
########## HA_RMSDs:		9.9337
########## HA_RMSDh:		9.9325
########## HA_RMSDm:		8.4555
########## Cluster Size:	10
##########    Grid Score:          -20.095762
##########      Grid_vdw:          -16.168865
##########       Grid_es:           -3.926897
##########    Int_energy:            2.151010

@<TRIPOS>MOLECULE
ligand
 24 24 1 0 0
SMALL
No Charge or Current Charge


@<TRIPOS>ATOM
      1 H1         14.3339   12.1705   25.4147 H       1  lig         0.1313
      2 H2         13.7844   10.8995   21.3749 H       1  lig         0.1473
      3 H3         11.9132   12.3651   25.6447 H       1  lig         0.1394
      4 H4         11.3405   11.1445   21.5848 H       1  lig         0.1574
      5 H5         15.9589   11.5624   22.1781 H       1  lig         0.1170
      6 H6         16.2230   12.2089   23.7654 H       1  lig         0.0678
      7 H7         16.1162    9.8902   24.7420 H       1  lig         0.0912
      8 H8         18.2183   10.8733   23.9906 H       1  lig         0.4249
      9 H9         18.2450    9.2354   23.6904 H       1  lig         0.4256
     10 H10        17.9582   10.3036   22.4391 H       1  lig         0.4835
     11 H11         9.7512   11.8088   22.9720 H       1  lig         0.4236
     12 C1         13.6901   11.9481   24.5659 C.ar    1  lig        -0.1098
     13 C2         13.3597   11.2357   22.3196 C.ar    1  lig        -0.0948
     14 C3         12.3324   12.0517   24.6938 C.ar    1  lig        -0.2079
     15 C4         11.9891   11.3754   22.4254 C.ar    1  lig        -0.1468
     16 C5         14.2106   11.5452   23.3744 C.ar    1  lig        -0.1510
     17 C6         11.4843   11.8070   23.6464 C.ar    1  lig         0.1263
     18 C7         15.6612    8.9347   22.9142 C.2     1  lig         0.9365
     19 C8         15.7141   11.4048   23.2305 C.3     1  lig        -0.0459
     20 C9         16.3033   10.0678   23.6813 C.3     1  lig        -0.0743
     21 N1         17.7476   10.1206   23.4579 N.4     1  lig        -0.8330
     22 O1         16.1771    8.6969   21.8243 O.co2   1  lig        -0.7110
     23 O2         14.6537    8.2942   23.3309 O.co2   1  lig        -0.8016
     24 O3         10.2308   11.9085   23.8462 O.3     1  lig        -0.4958
@<TRIPOS>BOND
     1    20    21    1
     2     8    21    1
     3     9    21    1
     4    10    21    1
     5    18    20    1
     6    19    20    1
     7     7    20    1
     8    18    23    1
     9    18    22    1
    10    16    19    1
    11     5    19    1
    12     6    19    1
    13    12    16   ar
    14    13    16   ar
    15    12    14   ar
    16     1    12    1
    17    13    15   ar
    18     2    13    1
    19    14    17   ar
    20     3    14    1
    21    15    17   ar
    22     4    15    1
    23    17    24    1
    24    11    24    1
@<TRIPOS>SUBSTRUCTURE
     1 lig         1 TEMP              0 ****  ****    0 ROOT


########## Name:		ligand
########## HA_RMSDs:		11.5056
########## HA_RMSDh:		11.4395
########## HA_RMSDm:		10.0236
########## Cluster Size:	5
##########    Grid Score:          -20.086725
##########      Grid_vdw:          -17.268589
##########       Grid_es:           -2.818136
##########    Int_energy:            1.947848

@<TRIPOS>MOLECULE
ligand
 24 24 1 0 0
SMALL
No Charge or Current Charge


@<TRIPOS>ATOM
      1 H1          8.4717   10.8574   23.1455 H       1  lig         0.1313
      2 H2         12.4187   10.0800   24.5786 H       1  lig         0.1473
      3 H3          8.0632   12.2281   25.1215 H       1  lig         0.1394
      4 H4         11.9944   11.4209   26.6030 H       1  lig         0.1574
      5 H5         11.3285    8.6682   22.8245 H       1  lig         0.1170
      6 H6          9.7966    9.1014   22.1368 H       1  lig         0.0678
      7 H7         11.1564   11.2938   21.3179 H       1  lig         0.0912
      8 H8         10.0275    9.6273   19.9401 H       1  lig         0.4249
      9 H9         11.5150    9.9682   19.2732 H       1  lig         0.4256
     10 H10        11.2999    8.5604   20.1453 H       1  lig         0.4835
     11 H11         9.2662   13.4792   26.6480 H       1  lig         0.4236
     12 C1          9.2502   10.9677   23.8978 C.ar    1  lig        -0.1098
     13 C2         11.4473   10.5535   24.7126 C.ar    1  lig        -0.0948
     14 C3          9.0254   11.7397   25.0042 C.ar    1  lig        -0.2079
     15 C4         11.2173   11.2983   25.8535 C.ar    1  lig        -0.1468
     16 C5         10.4619   10.3652   23.7504 C.ar    1  lig        -0.1510
     17 C6          9.9656   11.8869   25.9894 C.ar    1  lig         0.1263
     18 C7         12.9378   10.1885   21.5745 C.2     1  lig         0.9365
     19 C8         10.7284    9.5263   22.5150 C.3     1  lig        -0.0459
     20 C9         11.4415   10.2413   21.3668 C.3     1  lig        -0.0743
     21 N1         11.0461    9.5855   20.1209 N.4     1  lig        -0.8330
     22 O1         13.4990    9.2463   21.0197 O.co2   1  lig        -0.7110
     23 O2         13.5722   11.0198   22.2854 O.co2   1  lig        -0.8016
     24 O3          9.6897   12.6348   26.9823 O.3     1  lig        -0.4958
@<TRIPOS>BOND
     1    20    21    1
     2     8    21    1
     3     9    21    1
     4    10    21    1
     5    18    20    1
     6    19    20    1
     7     7    20    1
     8    18    23    1
     9    18    22    1
    10    16    19    1
    11     5    19    1
    12     6    19    1
    13    12    16   ar
    14    13    16   ar
    15    12    14   ar
    16     1    12    1
    17    13    15   ar
    18     2    13    1
    19    14    17   ar
    20     3    14    1
    21    15    17   ar
    22     4    15    1
    23    17    24    1
    24    11    24    1
@<TRIPOS>SUBSTRUCTURE
     1 lig         1 TEMP              0 ****  ****    0 ROOT


########## Name:		ligand
########## HA_RMSDs:		15.6384
########## HA_RMSDh:		15.6174
########## HA_RMSDm:		12.8096
########## Cluster Size:	1
##########    Grid Score:          -20.025806
##########      Grid_vdw:          -14.201596
##########       Grid_es:           -5.824210
##########    Int_energy:            2.545352

@<TRIPOS>MOLECULE
ligand
 24 24 1 0 0
SMALL
No Charge or Current Charge


@<TRIPOS>ATOM
      1 H1         26.8956    6.5597   14.4020 H       1  lig         0.1313
      2 H2         25.5131    4.0165   11.2623 H       1  lig         0.1473
      3 H3         28.9729    6.8937   13.1678 H       1  lig         0.1394
      4 H4         27.6310    4.3082   10.0350 H       1  lig         0.1574
      5 H5         24.1017    4.5112   13.0152 H       1  lig         0.1170
      6 H6         24.9375    4.3922   14.5299 H       1  lig         0.0678
      7 H7         24.6634    6.8051   14.9601 H       1  lig         0.0912
      8 H8         22.8162    5.2937   15.4637 H       1  lig         0.4249
      9 H9         22.2008    6.7653   14.9849 H       1  lig         0.4256
     10 H10        22.2084    5.4820   13.9162 H       1  lig         0.4835
     11 H11        30.1727    6.3165   11.5973 H       1  lig         0.4236
     12 C1         27.0458    6.0559   13.4492 C.ar    1  lig        -0.1098
     13 C2         26.2935    4.6476   11.6848 C.ar    1  lig        -0.0948
     14 C3         28.2076    6.2454   12.7529 C.ar    1  lig        -0.2079
     15 C4         27.4793    4.8001   10.9919 C.ar    1  lig        -0.1468
     16 C5         26.0850    5.2497   12.9202 C.ar    1  lig        -0.1510
     17 C6         28.4517    5.6126   11.5629 C.ar    1  lig         0.1263
     18 C7         23.9943    7.3239   13.0252 C.2     1  lig         0.9365
     19 C8         24.7836    5.0524   13.6742 C.3     1  lig        -0.0459
     20 C9         24.0955    6.3290   14.1586 C.3     1  lig        -0.0743
     21 N1         22.7768    5.9568   14.6695 N.4     1  lig        -0.8330
     22 O1         23.1722    7.0321   12.1594 O.co2   1  lig        -0.7110
     23 O2         24.7128    8.3611   12.9423 O.co2   1  lig        -0.8016
     24 O3         29.5501    5.8513   10.9647 O.3     1  lig        -0.4958
@<TRIPOS>BOND
     1    20    21    1
     2     8    21    1
     3     9    21    1
     4    10    21    1
     5    18    20    1
     6    19    20    1
     7     7    20    1
     8    18    23    1
     9    18    22    1
    10    16    19    1
    11     5    19    1
    12     6    19    1
    13    12    16   ar
    14    13    16   ar
    15    12    14   ar
    16     1    12    1
    17    13    15   ar
    18     2    13    1
    19    14    17   ar
    20     3    14    1
    21    15    17   ar
    22     4    15    1
    23    17    24    1
    24    11    24    1
@<TRIPOS>SUBSTRUCTURE
     1 lig         1 TEMP              0 ****  ****    0 ROOT


########## Name:		ligand
########## HA_RMSDs:		10.1601
########## HA_RMSDh:		10.0629
########## HA_RMSDm:		8.2968
########## Cluster Size:	8
##########    Grid Score:          -20.023920
##########      Grid_vdw:          -15.922440
##########       Grid_es:           -4.101480
##########    Int_energy:            1.683647

@<TRIPOS>MOLECULE
ligand
 24 24 1 0 0
SMALL
No Charge or Current Charge


@<TRIPOS>ATOM
      1 H1         13.4615   10.7947   21.8656 H       1  lig         0.1313
      2 H2         13.4619   12.1614   25.9114 H       1  lig         0.1473
      3 H3         11.0518   11.1636   21.7792 H       1  lig         0.1394
      4 H4         11.0192   12.4867   25.8472 H       1  lig         0.1574
      5 H5         15.3272   10.6482   24.8570 H       1  lig         0.1170
      6 H6         15.4335   10.5893   23.1271 H       1  lig         0.0678
      7 H7         15.4433   13.3130   24.4653 H       1  lig         0.0912
      8 H8         15.3299   13.0723   22.0406 H       1  lig         0.4249
      9 H9         16.8117   13.7087   22.4560 H       1  lig         0.4256
     10 H10        16.6869   12.0936   22.0501 H       1  lig         0.4835
     11 H11         9.4451   12.3646   22.7516 H       1  lig         0.4236
     12 C1         12.9382   11.1603   22.7469 C.ar    1  lig        -0.1098
     13 C2         12.9156   11.9315   24.9980 C.ar    1  lig        -0.0948
     14 C3         11.5879   11.3726   22.6995 C.ar    1  lig        -0.2079
     15 C4         11.5458   12.1117   24.9738 C.ar    1  lig        -0.1468
     16 C5         13.6077   11.4332   23.9002 C.ar    1  lig        -0.1510
     17 C6         10.8831   11.8072   23.7906 C.ar    1  lig         0.1263
     18 C7         17.2523   12.2489   24.7019 C.2     1  lig         0.9365
     19 C8         15.1090   11.2231   23.9547 C.3     1  lig        -0.0459
     20 C9         15.9586   12.4944   23.9596 C.3     1  lig        -0.0743
     21 N1         16.1986   12.8741   22.5679 N.4     1  lig        -0.8330
     22 O1         17.7406   13.2484   25.2245 O.co2   1  lig        -0.7110
     23 O2         17.8171   11.1193   24.7626 O.co2   1  lig        -0.8016
     24 O3          9.6303   11.9974   23.6653 O.3     1  lig        -0.4958
@<TRIPOS>BOND
     1    20    21    1
     2     8    21    1
     3     9    21    1
     4    10    21    1
     5    18    20    1
     6    19    20    1
     7     7    20    1
     8    18    23    1
     9    18    22    1
    10    16    19    1
    11     5    19    1
    12     6    19    1
    13    12    16   ar
    14    13    16   ar
    15    12    14   ar
    16     1    12    1
    17    13    15   ar
    18     2    13    1
    19    14    17   ar
    20     3    14    1
    21    15    17   ar
    22     4    15    1
    23    17    24    1
    24    11    24    1
@<TRIPOS>SUBSTRUCTURE
     1 lig         1 TEMP              0 ****  ****    0 ROOT


########## Name:		ligand
########## HA_RMSDs:		14.2696
########## HA_RMSDh:		14.2611
########## HA_RMSDm:		12.7521
########## Cluster Size:	2
##########    Grid Score:          -19.949593
##########      Grid_vdw:          -16.506468
##########       Grid_es:           -3.443126
##########    Int_energy:            2.886128

@<TRIPOS>MOLECULE
ligand
 24 24 1 0 0
SMALL
No Charge or Current Charge


@<TRIPOS>ATOM
      1 H1         24.9928    7.0565   14.8869 H       1  lig         0.1313
      2 H2         21.7906    5.1429   12.8081 H       1  lig         0.1473
      3 H3         24.9220    8.8679   13.2547 H       1  lig         0.1394
      4 H4         21.7492    6.9442   11.1256 H       1  lig         0.1574
      5 H5         24.4431    4.8262   15.3861 H       1  lig         0.1170
      6 H6         22.7788    5.0905   15.7954 H       1  lig         0.0678
      7 H7         22.1140    3.4677   13.9298 H       1  lig         0.0912
      8 H8         22.3101    2.8252   16.2747 H       1  lig         0.4249
      9 H9         22.8335    1.5656   15.3193 H       1  lig         0.4256
     10 H10        23.9486    2.5443   16.0858 H       1  lig         0.4835
     11 H11        22.7638    8.8091   10.5200 H       1  lig         0.4236
     12 C1         24.2811    7.0164   14.0647 C.ar    1  lig        -0.1098
     13 C2         22.4920    5.9715   12.8941 C.ar    1  lig        -0.0948
     14 C3         24.2360    8.0332   13.1511 C.ar    1  lig        -0.2079
     15 C4         22.4647    6.9733   11.9428 C.ar    1  lig        -0.1468
     16 C5         23.4122    5.9765   13.9361 C.ar    1  lig        -0.1510
     17 C6         23.3752    8.0137   12.0858 C.ar    1  lig         0.1263
     18 C7         24.1131    3.0191   13.4169 C.2     1  lig         0.9365
     19 C8         23.4389    4.8559   14.9582 C.3     1  lig        -0.0459
     20 C9         23.0841    3.4655   14.4301 C.3     1  lig        -0.0743
     21 N1         23.0243    2.5573   15.5747 N.4     1  lig        -0.8330
     22 O1         23.6748    2.2926   12.5277 O.co2   1  lig        -0.7110
     23 O2         25.3365    3.3317   13.4823 O.co2   1  lig        -0.8016
     24 O3         23.3800    9.0042   11.2857 O.3     1  lig        -0.4958
@<TRIPOS>BOND
     1    20    21    1
     2     8    21    1
     3     9    21    1
     4    10    21    1
     5    18    20    1
     6    19    20    1
     7     7    20    1
     8    18    23    1
     9    18    22    1
    10    16    19    1
    11     5    19    1
    12     6    19    1
    13    12    16   ar
    14    13    16   ar
    15    12    14   ar
    16     1    12    1
    17    13    15   ar
    18     2    13    1
    19    14    17   ar
    20     3    14    1
    21    15    17   ar
    22     4    15    1
    23    17    24    1
    24    11    24    1
@<TRIPOS>SUBSTRUCTURE
     1 lig         1 TEMP              0 ****  ****    0 ROOT


########## Name:		ligand
########## HA_RMSDs:		13.3839
########## HA_RMSDh:		13.3195
########## HA_RMSDm:		11.2032
########## Cluster Size:	1
##########    Grid Score:          -19.936440
##########      Grid_vdw:          -16.501518
##########       Grid_es:           -3.434921
##########    Int_energy:            2.977629

@<TRIPOS>MOLECULE
ligand
 24 24 1 0 0
SMALL
No Charge or Current Charge


@<TRIPOS>ATOM
      1 H1         11.4116    7.6383   23.4925 H       1  lig         0.1313
      2 H2          8.2147    8.5479   20.8111 H       1  lig         0.1473
      3 H3         10.9000    5.2666   23.2405 H       1  lig         0.1394
      4 H4          7.6594    6.1560   20.5933 H       1  lig         0.1574
      5 H5          9.2295   10.2726   22.1636 H       1  lig         0.1170
      6 H6         10.4514    9.9454   23.3499 H       1  lig         0.0678
      7 H7         11.1111   11.3272   21.2137 H       1  lig         0.0912
      8 H8         10.1484    9.7179   19.6537 H       1  lig         0.4249
      9 H9         11.7883    9.8240   19.3838 H       1  lig         0.4256
     10 H10        11.1682    8.5197   20.2226 H       1  lig         0.4835
     11 H11         9.7254    3.8258   22.4120 H       1  lig         0.4236
     12 C1         10.5832    7.3279   22.8587 C.ar    1  lig        -0.1098
     13 C2          8.8013    7.8108   21.3572 C.ar    1  lig        -0.0948
     14 C3         10.2975    5.9984   22.7118 C.ar    1  lig        -0.2079
     15 C4          8.4785    6.4729   21.2331 C.ar    1  lig        -0.1468
     16 C5          9.8310    8.2414   22.1860 C.ar    1  lig        -0.1510
     17 C6          9.2494    5.5619   21.9455 C.ar    1  lig         0.1263
     18 C7         12.6002   10.0319   21.9658 C.2     1  lig         0.9365
     19 C8         10.1555    9.7167   22.3242 C.3     1  lig        -0.0459
     20 C9         11.2269   10.2538   21.3746 C.3     1  lig        -0.0743
     21 N1         11.0725    9.5639   20.0944 N.4     1  lig        -0.8330
     22 O1         13.1741    9.0223   21.5635 O.co2   1  lig        -0.7110
     23 O2         13.1183   10.7957   22.8301 O.co2   1  lig        -0.8016
     24 O3          9.0553    4.3076   21.8438 O.3     1  lig        -0.4958
@<TRIPOS>BOND
     1    20    21    1
     2     8    21    1
     3     9    21    1
     4    10    21    1
     5    18    20    1
     6    19    20    1
     7     7    20    1
     8    18    23    1
     9    18    22    1
    10    16    19    1
    11     5    19    1
    12     6    19    1
    13    12    16   ar
    14    13    16   ar
    15    12    14   ar
    16     1    12    1
    17    13    15   ar
    18     2    13    1
    19    14    17   ar
    20     3    14    1
    21    15    17   ar
    22     4    15    1
    23    17    24    1
    24    11    24    1
@<TRIPOS>SUBSTRUCTURE
     1 lig         1 TEMP              0 ****  ****    0 ROOT


########## Name:		ligand
########## HA_RMSDs:		10.3968
########## HA_RMSDh:		10.3466
########## HA_RMSDm:		8.6032
########## Cluster Size:	3
##########    Grid Score:          -19.907238
##########      Grid_vdw:          -15.117568
##########       Grid_es:           -4.789669
##########    Int_energy:            3.077026

@<TRIPOS>MOLECULE
ligand
 24 24 1 0 0
SMALL
No Charge or Current Charge


@<TRIPOS>ATOM
      1 H1         12.4395   12.0858   26.1010 H       1  lig         0.1313
      2 H2         14.6626   11.3770   22.5243 H       1  lig         0.1473
      3 H3         10.3966   11.4976   24.9048 H       1  lig         0.1394
      4 H4         12.5957   10.8324   21.2962 H       1  lig         0.1574
      5 H5         14.6733   12.4023   26.1468 H       1  lig         0.1170
      6 H6         15.5855   11.2543   25.2208 H       1  lig         0.0678
      7 H7         15.2402   13.7779   23.7228 H       1  lig         0.0912
      8 H8         16.8298   11.9938   23.2324 H       1  lig         0.4249
      9 H9         17.6684   13.3888   23.5848 H       1  lig         0.4256
     10 H10        17.5430   12.1836   24.7340 H       1  lig         0.4835
     11 H11        10.4268   10.1735   21.7712 H       1  lig         0.4236
     12 C1         12.4875   11.8187   25.0471 C.ar    1  lig        -0.1098
     13 C2         13.7065   11.4116   23.0444 C.ar    1  lig        -0.0948
     14 C3         11.3441   11.4837   24.3755 C.ar    1  lig        -0.2079
     15 C4         12.5530   11.1103   22.3458 C.ar    1  lig        -0.1468
     16 C5         13.6745   11.7902   24.3816 C.ar    1  lig        -0.1510
     17 C6         11.3520   11.1657   23.0432 C.ar    1  lig         0.1263
     18 C7         16.0815   14.3081   25.5861 C.2     1  lig         0.9365
     19 C8         14.9507   12.1373   25.1245 C.3     1  lig        -0.0459
     20 C9         15.7806   13.2735   24.5260 C.3     1  lig        -0.0743
     21 N1         17.0046   12.6895   23.9790 N.4     1  lig        -0.8330
     22 O1         16.2122   15.4539   25.1611 O.co2   1  lig        -0.7110
     23 O2         16.2229   14.0293   26.8113 O.co2   1  lig        -0.8016
     24 O3         10.2497   10.8489   22.4901 O.3     1  lig        -0.4958
@<TRIPOS>BOND
     1    20    21    1
     2     8    21    1
     3     9    21    1
     4    10    21    1
     5    18    20    1
     6    19    20    1
     7     7    20    1
     8    18    23    1
     9    18    22    1
    10    16    19    1
    11     5    19    1
    12     6    19    1
    13    12    16   ar
    14    13    16   ar
    15    12    14   ar
    16     1    12    1
    17    13    15   ar
    18     2    13    1
    19    14    17   ar
    20     3    14    1
    21    15    17   ar
    22     4    15    1
    23    17    24    1
    24    11    24    1
@<TRIPOS>SUBSTRUCTURE
     1 lig         1 TEMP              0 ****  ****    0 ROOT


########## Name:		ligand
########## HA_RMSDs:		15.2954
########## HA_RMSDh:		15.2835
########## HA_RMSDm:		13.5926
########## Cluster Size:	1
##########    Grid Score:          -19.853821
##########      Grid_vdw:          -10.958944
##########       Grid_es:           -8.894876
##########    Int_energy:            1.675401

@<TRIPOS>MOLECULE
ligand
 24 24 1 0 0
SMALL
No Charge or Current Charge


@<TRIPOS>ATOM
      1 H1         26.3932    3.7787   13.6633 H       1  lig         0.1313
      2 H2         23.1977    6.4035   14.7294 H       1  lig         0.1473
      3 H3         27.6740    5.7079   12.8965 H       1  lig         0.1394
      4 H4         24.4661    8.3511   13.9078 H       1  lig         0.1574
      5 H5         24.6249    3.0523   15.1226 H       1  lig         0.1170
      6 H6         23.2856    4.0617   15.5638 H       1  lig         0.0678
      7 H7         23.5581    2.9912   12.7179 H       1  lig         0.0912
      8 H8         22.0360    4.8476   13.1505 H       1  lig         0.4249
      9 H9         21.1460    3.4777   12.8264 H       1  lig         0.4256
     10 H10        21.3200    4.0003   14.4030 H       1  lig         0.4835
     11 H11        27.8517    7.8015   12.9558 H       1  lig         0.4236
     12 C1         25.9567    4.7741   13.7174 C.ar    1  lig        -0.1098
     13 C2         24.1917    6.2562   14.3097 C.ar    1  lig        -0.0948
     14 C3         26.6747    5.8579   13.2927 C.ar    1  lig        -0.2079
     15 C4         24.8923    7.3535   13.8466 C.ar    1  lig        -0.1468
     16 C5         24.7077    4.9683   14.2225 C.ar    1  lig        -0.1510
     17 C6         26.1573    7.1259   13.3176 C.ar    1  lig         0.1263
     18 C7         22.7023    1.6781   14.1336 C.2     1  lig         0.9365
     19 C8         23.9133    3.7748   14.7179 C.3     1  lig        -0.0459
     20 C9         23.0394    3.0782   13.6744 C.3     1  lig        -0.0743
     21 N1         21.8369    3.8894   13.4885 N.4     1  lig        -0.8330
     22 O1         22.4731    0.8824   13.2253 O.co2   1  lig        -0.7110
     23 O2         22.6258    1.3436   15.3505 O.co2   1  lig        -0.8016
     24 O3         26.8918    8.0872   12.9205 O.3     1  lig        -0.4958
@<TRIPOS>BOND
     1    20    21    1
     2     8    21    1
     3     9    21    1
     4    10    21    1
     5    18    20    1
     6    19    20    1
     7     7    20    1
     8    18    23    1
     9    18    22    1
    10    16    19    1
    11     5    19    1
    12     6    19    1
    13    12    16   ar
    14    13    16   ar
    15    12    14   ar
    16     1    12    1
    17    13    15   ar
    18     2    13    1
    19    14    17   ar
    20     3    14    1
    21    15    17   ar
    22     4    15    1
    23    17    24    1
    24    11    24    1
@<TRIPOS>SUBSTRUCTURE
     1 lig         1 TEMP              0 ****  ****    0 ROOT


########## Name:		ligand
########## HA_RMSDs:		15.5421
########## HA_RMSDh:		15.4624
########## HA_RMSDm:		12.4166
########## Cluster Size:	1
##########    Grid Score:          -19.816006
##########      Grid_vdw:          -16.723343
##########       Grid_es:           -3.092663
##########    Int_energy:            1.674583

@<TRIPOS>MOLECULE
ligand
 24 24 1 0 0
SMALL
No Charge or Current Charge


@<TRIPOS>ATOM
      1 H1         23.9618    6.6415   13.1319 H       1  lig         0.1313
      2 H2         28.0780    5.7311   12.4498 H       1  lig         0.1473
      3 H3         23.3795    4.3888   12.3995 H       1  lig         0.1394
      4 H4         27.4916    3.4711   11.6589 H       1  lig         0.1574
      5 H5         27.2236    8.0909   12.6386 H       1  lig         0.1170
      6 H6         25.5913    8.4156   13.1258 H       1  lig         0.0678
      7 H7         27.8207    7.3158   14.9045 H       1  lig         0.0912
      8 H8         25.6910    6.2192   15.3651 H       1  lig         0.4249
      9 H9         26.0336    7.2838   16.5992 H       1  lig         0.4256
     10 H10        24.9151    7.7001   15.4310 H       1  lig         0.4835
     11 H11        23.9956    2.6352   11.5179 H       1  lig         0.4236
     12 C1         24.7445    5.9592   12.8065 C.ar    1  lig        -0.1098
     13 C2         27.0325    5.4274   12.4254 C.ar    1  lig        -0.0948
     14 C3         24.4211    4.6939   12.4000 C.ar    1  lig        -0.2079
     15 C4         26.7136    4.1607   11.9750 C.ar    1  lig        -0.1468
     16 C5         26.0531    6.3339   12.8147 C.ar    1  lig        -0.1510
     17 C6         25.3689    3.8094   11.9579 C.ar    1  lig         0.1263
     18 C7         27.0941    9.2886   15.1075 C.2     1  lig         0.9365
     19 C8         26.4234    7.7273   13.2864 C.3     1  lig        -0.0459
     20 C9         26.8759    7.8381   14.7427 C.3     1  lig        -0.0743
     21 N1         25.8452    7.2210   15.5766 N.4     1  lig        -0.8330
     22 O1         26.0867    9.8765   15.4950 O.co2   1  lig        -0.7110
     23 O2         28.2093    9.8744   14.9978 O.co2   1  lig        -0.8016
     24 O3         24.9933    2.6433   11.6107 O.3     1  lig        -0.4958
@<TRIPOS>BOND
     1    20    21    1
     2     8    21    1
     3     9    21    1
     4    10    21    1
     5    18    20    1
     6    19    20    1
     7     7    20    1
     8    18    23    1
     9    18    22    1
    10    16    19    1
    11     5    19    1
    12     6    19    1
    13    12    16   ar
    14    13    16   ar
    15    12    14   ar
    16     1    12    1
    17    13    15   ar
    18     2    13    1
    19    14    17   ar
    20     3    14    1
    21    15    17   ar
    22     4    15    1
    23    17    24    1
    24    11    24    1
@<TRIPOS>SUBSTRUCTURE
     1 lig         1 TEMP              0 ****  ****    0 ROOT


########## Name:		ligand
########## HA_RMSDs:		15.8853
########## HA_RMSDh:		15.8833
########## HA_RMSDm:		13.4855
########## Cluster Size:	2
##########    Grid Score:          -19.812805
##########      Grid_vdw:          -17.346956
##########       Grid_es:           -2.465849
##########    Int_energy:            1.679409

@<TRIPOS>MOLECULE
ligand
 24 24 1 0 0
SMALL
No Charge or Current Charge


@<TRIPOS>ATOM
      1 H1         26.0525    5.5552   12.4434 H       1  lig         0.1313
      2 H2         21.9585    4.3691   12.1801 H       1  lig         0.1473
      3 H3         25.3373    7.8871   12.4754 H       1  lig         0.1394
      4 H4         21.2325    6.7248   12.1592 H       1  lig         0.1574
      5 H5         24.9304    3.1548   13.2610 H       1  lig         0.1170
      6 H6         23.6203    2.7085   12.2161 H       1  lig         0.0678
      7 H7         26.1993    3.7776   11.0015 H       1  lig         0.0912
      8 H8         24.1937    3.5282    9.6356 H       1  lig         0.4249
      9 H9         25.3133    2.3854    9.1730 H       1  lig         0.4256
     10 H10        24.0222    1.9404   10.1342 H       1  lig         0.4835
     11 H11        22.0994    8.8013   12.8168 H       1  lig         0.4236
     12 C1         24.9938    5.7974   12.3747 C.ar    1  lig        -0.1098
     13 C2         22.7055    5.1595   12.2350 C.ar    1  lig        -0.0948
     14 C3         24.5898    7.1039   12.3975 C.ar    1  lig        -0.2079
     15 C4         22.2888    6.4768   12.2167 C.ar    1  lig        -0.1468
     16 C5         24.0521    4.8184   12.2867 C.ar    1  lig        -0.1510
     17 C6         23.2711    7.4576   12.2879 C.ar    1  lig         0.1263
     18 C7         26.2809    1.7634   11.6319 C.2     1  lig         0.9365
     19 C8         24.4892    3.3659   12.2847 C.3     1  lig        -0.0459
     20 C9         25.4871    2.9732   11.1948 C.3     1  lig        -0.0743
     21 N1         24.7290    2.7085    9.9725 N.4     1  lig        -0.8330
     22 O1         27.4088    1.6891   11.1492 O.co2   1  lig        -0.7110
     23 O2         25.8247    0.8731   12.4052 O.co2   1  lig        -0.8016
     24 O3         22.9704    8.6941   12.3332 O.3     1  lig        -0.4958
@<TRIPOS>BOND
     1    20    21    1
     2     8    21    1
     3     9    21    1
     4    10    21    1
     5    18    20    1
     6    19    20    1
     7     7    20    1
     8    18    23    1
     9    18    22    1
    10    16    19    1
    11     5    19    1
    12     6    19    1
    13    12    16   ar
    14    13    16   ar
    15    12    14   ar
    16     1    12    1
    17    13    15   ar
    18     2    13    1
    19    14    17   ar
    20     3    14    1
    21    15    17   ar
    22     4    15    1
    23    17    24    1
    24    11    24    1
@<TRIPOS>SUBSTRUCTURE
     1 lig         1 TEMP              0 ****  ****    0 ROOT


########## Name:		ligand
########## HA_RMSDs:		13.1932
########## HA_RMSDh:		13.1522
########## HA_RMSDm:		11.2552
########## Cluster Size:	1
##########    Grid Score:          -19.735340
##########      Grid_vdw:          -17.045824
##########       Grid_es:           -2.689517
##########    Int_energy:            1.114753

@<TRIPOS>MOLECULE
ligand
 24 24 1 0 0
SMALL
No Charge or Current Charge


@<TRIPOS>ATOM
      1 H1         10.5181    7.6672   23.5355 H       1  lig         0.1313
      2 H2          9.4868    9.9579   20.0821 H       1  lig         0.1473
      3 H3          9.0651    5.8776   22.7379 H       1  lig         0.1394
      4 H4          7.9765    8.1747   19.2972 H       1  lig         0.1574
      5 H5         11.9921    9.6181   22.4563 H       1  lig         0.1170
      6 H6         11.0863   10.8138   21.5862 H       1  lig         0.0678
      7 H7         10.2922    9.9650   24.4125 H       1  lig         0.0912
      8 H8          8.6332   11.0972   23.0284 H       1  lig         0.4249
      9 H9          9.1411   12.1347   24.2280 H       1  lig         0.4256
     10 H10         9.7246   12.3147   22.6736 H       1  lig         0.4835
     11 H11         6.8869    6.2775   20.1593 H       1  lig         0.4236
     12 C1          9.9627    7.7939   22.6083 C.ar    1  lig        -0.1098
     13 C2          9.3788    9.0497   20.6732 C.ar    1  lig        -0.0948
     14 C3          9.1512    6.7900   22.1564 C.ar    1  lig        -0.2079
     15 C4          8.5254    8.0585   20.2277 C.ar    1  lig        -0.1468
     16 C5         10.0751    8.9324   21.8706 C.ar    1  lig        -0.1510
     17 C6          8.4135    6.9144   21.0090 C.ar    1  lig         0.1263
     18 C7         11.7713   11.4631   24.2426 C.2     1  lig         0.9365
     19 C8         10.9911   10.0415   22.3519 C.3     1  lig        -0.0459
     20 C9         10.5945   10.7064   23.6706 C.3     1  lig        -0.0743
     21 N1          9.4633   11.5926   23.3990 N.4     1  lig        -0.8330
     22 O1         11.9447   12.5806   23.7611 O.co2   1  lig        -0.7110
     23 O2         12.5445   10.9870   25.1225 O.co2   1  lig        -0.8016
     24 O3          7.6928    5.9305   20.6433 O.3     1  lig        -0.4958
@<TRIPOS>BOND
     1    20    21    1
     2     8    21    1
     3     9    21    1
     4    10    21    1
     5    18    20    1
     6    19    20    1
     7     7    20    1
     8    18    23    1
     9    18    22    1
    10    16    19    1
    11     5    19    1
    12     6    19    1
    13    12    16   ar
    14    13    16   ar
    15    12    14   ar
    16     1    12    1
    17    13    15   ar
    18     2    13    1
    19    14    17   ar
    20     3    14    1
    21    15    17   ar
    22     4    15    1
    23    17    24    1
    24    11    24    1
@<TRIPOS>SUBSTRUCTURE
     1 lig         1 TEMP              0 ****  ****    0 ROOT


########## Name:		ligand
########## HA_RMSDs:		11.9078
########## HA_RMSDh:		11.8839
########## HA_RMSDm:		10.4350
########## Cluster Size:	4
##########    Grid Score:          -19.732338
##########      Grid_vdw:          -17.435120
##########       Grid_es:           -2.297219
##########    Int_energy:            1.835938

@<TRIPOS>MOLECULE
ligand
 24 24 1 0 0
SMALL
No Charge or Current Charge


@<TRIPOS>ATOM
      1 H1         12.0350   10.7840   21.5814 H       1  lig         0.1313
      2 H2          8.3144   10.2489   23.6082 H       1  lig         0.1473
      3 H3         12.8309   12.1096   23.4681 H       1  lig         0.1394
      4 H4          9.0939   11.6311   25.4946 H       1  lig         0.1574
      5 H5          8.5983    9.3129   21.5304 H       1  lig         0.1170
      6 H6          9.5509   10.2212   20.4013 H       1  lig         0.0678
      7 H7         11.4873    8.6193   20.7767 H       1  lig         0.0912
      8 H8          9.8725    8.3425   18.9695 H       1  lig         0.4249
      9 H9         10.3244    6.8411   19.5308 H       1  lig         0.4256
     10 H10         8.8512    7.4861   19.9808 H       1  lig         0.4835
     11 H11        10.7991   12.8339   26.2062 H       1  lig         0.4236
     12 C1         11.3782   10.9666   22.4296 C.ar    1  lig        -0.1098
     13 C2          9.3157   10.6761   23.5803 C.ar    1  lig        -0.0948
     14 C3         11.8238   11.7053   23.4910 C.ar    1  lig        -0.2079
     15 C4          9.7412   11.4542   24.6399 C.ar    1  lig        -0.1468
     16 C5         10.1180   10.4535   22.4672 C.ar    1  lig        -0.1510
     17 C6         11.0248   11.9826   24.5684 C.ar    1  lig         0.1263
     18 C7         10.4466    7.4302   22.1779 C.2     1  lig         0.9365
     19 C8          9.6236    9.6131   21.3051 C.3     1  lig        -0.0459
     20 C9         10.4475    8.3643   20.9896 C.3     1  lig        -0.0743
     21 N1          9.8632    7.7334   19.8067 N.4     1  lig        -0.8330
     22 O1          9.4951    6.6532   22.2179 O.co2   1  lig        -0.7110
     23 O2         11.3280    7.4548   23.0841 O.co2   1  lig        -0.8016
     24 O3         11.5150   12.6635   25.5261 O.3     1  lig        -0.4958
@<TRIPOS>BOND
     1    20    21    1
     2     8    21    1
     3     9    21    1
     4    10    21    1
     5    18    20    1
     6    19    20    1
     7     7    20    1
     8    18    23    1
     9    18    22    1
    10    16    19    1
    11     5    19    1
    12     6    19    1
    13    12    16   ar
    14    13    16   ar
    15    12    14   ar
    16     1    12    1
    17    13    15   ar
    18     2    13    1
    19    14    17   ar
    20     3    14    1
    21    15    17   ar
    22     4    15    1
    23    17    24    1
    24    11    24    1
@<TRIPOS>SUBSTRUCTURE
     1 lig         1 TEMP              0 ****  ****    0 ROOT


########## Name:		ligand
########## HA_RMSDs:		13.1467
########## HA_RMSDh:		13.0678
########## HA_RMSDm:		10.9664
########## Cluster Size:	4
##########    Grid Score:          -19.729374
##########      Grid_vdw:          -15.808899
##########       Grid_es:           -3.920474
##########    Int_energy:            2.623270

@<TRIPOS>MOLECULE
ligand
 24 24 1 0 0
SMALL
No Charge or Current Charge


@<TRIPOS>ATOM
      1 H1          9.0561    9.2569   21.0955 H       1  lig         0.1313
      2 H2          9.6791   10.8945   24.9900 H       1  lig         0.1473
      3 H3         11.2546   10.0828   20.4360 H       1  lig         0.1394
      4 H4         11.8793   11.7771   24.3141 H       1  lig         0.1574
      5 H5          7.8679    9.4317   24.5862 H       1  lig         0.1170
      6 H6          7.0855   10.2500   23.2726 H       1  lig         0.0678
      7 H7          7.6580    8.1391   21.8247 H       1  lig         0.0912
      8 H8          5.4478    8.7423   22.6621 H       1  lig         0.4249
      9 H9          5.6431    7.0925   22.7793 H       1  lig         0.4256
     10 H10         5.7920    8.0445   24.1433 H       1  lig         0.4835
     11 H11        12.8783   11.2603   20.8976 H       1  lig         0.4236
     12 C1          9.6617    9.8124   21.8089 C.ar    1  lig        -0.1098
     13 C2         10.0333   10.7273   23.9740 C.ar    1  lig        -0.0948
     14 C3         10.8968   10.2723   21.4431 C.ar    1  lig        -0.2079
     15 C4         11.2654   11.2309   23.6031 C.ar    1  lig        -0.1468
     16 C5          9.2215   10.0440   23.0759 C.ar    1  lig        -0.1510
     17 C6         11.6833   10.9978   22.2982 C.ar    1  lig         0.1263
     18 C7          8.2488    7.0569   23.5395 C.2     1  lig         0.9365
     19 C8          7.8629    9.5173   23.4977 C.3     1  lig        -0.0459
     20 C9          7.4556    8.1716   22.8968 C.3     1  lig        -0.0743
     21 N1          6.0187    8.0052   23.1124 N.4     1  lig        -0.8330
     22 O1          7.8221    6.6883   24.6316 O.co2   1  lig        -0.7110
     23 O2          9.2887    6.5551   23.0241 O.co2   1  lig        -0.8016
     24 O3         12.8284   11.3784   21.8915 O.3     1  lig        -0.4958
@<TRIPOS>BOND
     1    20    21    1
     2     8    21    1
     3     9    21    1
     4    10    21    1
     5    18    20    1
     6    19    20    1
     7     7    20    1
     8    18    23    1
     9    18    22    1
    10    16    19    1
    11     5    19    1
    12     6    19    1
    13    12    16   ar
    14    13    16   ar
    15    12    14   ar
    16     1    12    1
    17    13    15   ar
    18     2    13    1
    19    14    17   ar
    20     3    14    1
    21    15    17   ar
    22     4    15    1
    23    17    24    1
    24    11    24    1
@<TRIPOS>SUBSTRUCTURE
     1 lig         1 TEMP              0 ****  ****    0 ROOT


########## Name:		ligand
########## HA_RMSDs:		11.9736
########## HA_RMSDh:		11.8688
########## HA_RMSDm:		9.6638
########## Cluster Size:	5
##########    Grid Score:          -19.682486
##########      Grid_vdw:          -16.995726
##########       Grid_es:           -2.686760
##########    Int_energy:            3.949569

@<TRIPOS>MOLECULE
ligand
 24 24 1 0 0
SMALL
No Charge or Current Charge


@<TRIPOS>ATOM
      1 H1         10.8804   11.0407   21.5341 H       1  lig         0.1313
      2 H2         11.3840    7.1225   23.1561 H       1  lig         0.1473
      3 H3          9.2207   10.1472   19.9857 H       1  lig         0.1394
      4 H4          9.7463    6.2040   21.5590 H       1  lig         0.1574
      5 H5         11.8699   10.6198   23.8030 H       1  lig         0.1170
      6 H6         12.3674    9.0242   24.2657 H       1  lig         0.0678
      7 H7         14.2973   10.4692   23.5553 H       1  lig         0.0912
      8 H8         13.0669   11.7112   21.8542 H       1  lig         0.4249
      9 H9         14.3999   11.0010   21.1525 H       1  lig         0.4256
     10 H10        12.8886   10.3241   20.9358 H       1  lig         0.4835
     11 H11         8.4355    8.4180   19.0802 H       1  lig         0.4236
     12 C1         10.6457    9.9782   21.5465 C.ar    1  lig        -0.1098
     13 C2         10.9050    7.7877   22.4392 C.ar    1  lig        -0.0948
     14 C3          9.7119    9.4756   20.6827 C.ar    1  lig        -0.2079
     15 C4          9.9928    7.2621   21.5443 C.ar    1  lig        -0.1468
     16 C5         11.2518    9.1338   22.4254 C.ar    1  lig        -0.1510
     17 C6          9.4026    8.1418   20.6444 C.ar    1  lig         0.1263
     18 C7         14.3430    8.6427   22.4958 C.2     1  lig         0.9365
     19 C8         12.2714    9.6864   23.4030 C.3     1  lig        -0.0459
     20 C9         13.6649    9.9511   22.8320 C.3     1  lig        -0.0743
     21 N1         13.5074   10.7969   21.6495 N.4     1  lig        -0.8330
     22 O1         14.4067    8.3928   21.2941 O.co2   1  lig        -0.7110
     23 O2         14.7855    7.8427   23.3693 O.co2   1  lig        -0.8016
     24 O3          8.5109    7.7506   19.8239 O.3     1  lig        -0.4958
@<TRIPOS>BOND
     1    20    21    1
     2     8    21    1
     3     9    21    1
     4    10    21    1
     5    18    20    1
     6    19    20    1
     7     7    20    1
     8    18    23    1
     9    18    22    1
    10    16    19    1
    11     5    19    1
    12     6    19    1
    13    12    16   ar
    14    13    16   ar
    15    12    14   ar
    16     1    12    1
    17    13    15   ar
    18     2    13    1
    19    14    17   ar
    20     3    14    1
    21    15    17   ar
    22     4    15    1
    23    17    24    1
    24    11    24    1
@<TRIPOS>SUBSTRUCTURE
     1 lig         1 TEMP              0 ****  ****    0 ROOT


########## Name:		ligand
########## HA_RMSDs:		10.4019
########## HA_RMSDh:		10.3633
########## HA_RMSDm:		8.4121
########## Cluster Size:	4
##########    Grid Score:          -19.665731
##########      Grid_vdw:          -14.415218
##########       Grid_es:           -5.250513
##########    Int_energy:            2.500153

@<TRIPOS>MOLECULE
ligand
 24 24 1 0 0
SMALL
No Charge or Current Charge


@<TRIPOS>ATOM
      1 H1         12.9880   12.4310   25.6924 H       1  lig         0.1313
      2 H2         14.0526   11.0451   21.7958 H       1  lig         0.1473
      3 H3         15.3358   12.9423   26.1126 H       1  lig         0.1394
      4 H4         16.4335   11.5108   22.2336 H       1  lig         0.1574
      5 H5         11.4101   11.3098   24.4177 H       1  lig         0.1170
      6 H6         11.4435   12.2243   22.9447 H       1  lig         0.0678
      7 H7         12.4974    9.4330   22.6757 H       1  lig         0.0912
      8 H8         12.1853   10.9911   20.8251 H       1  lig         0.4249
      9 H9         11.1397    9.7083   20.6392 H       1  lig         0.4256
     10 H10        10.5678   11.1679   21.2150 H       1  lig         0.4835
     11 H11        17.8400   12.1313   23.8449 H       1  lig         0.4236
     12 C1         13.7331   12.2190   24.9281 C.ar    1  lig        -0.1098
     13 C2         14.3486   11.4581   22.7590 C.ar    1  lig        -0.0948
     14 C3         15.0494   12.5094   25.1593 C.ar    1  lig        -0.2079
     15 C4         15.6862   11.7103   22.9968 C.ar    1  lig        -0.1468
     16 C5         13.3775   11.6853   23.7274 C.ar    1  lig        -0.1510
     17 C6         16.0253   12.2368   24.2376 C.ar    1  lig         0.1263
     18 C7         10.4650    9.3686   23.2466 C.2     1  lig         0.9365
     19 C8         11.9168   11.3820   23.4532 C.3     1  lig        -0.0459
     20 C9         11.6408   10.1092   22.6520 C.3     1  lig        -0.0743
     21 N1         11.3865   10.5024   21.2666 N.4     1  lig        -0.8330
     22 O1         10.5995    8.1478   23.2941 O.co2   1  lig        -0.7110
     23 O2          9.4074    9.9403   23.6383 O.co2   1  lig        -0.8016
     24 O3         17.2271   12.5503   24.5180 O.3     1  lig        -0.4958
@<TRIPOS>BOND
     1    20    21    1
     2     8    21    1
     3     9    21    1
     4    10    21    1
     5    18    20    1
     6    19    20    1
     7     7    20    1
     8    18    23    1
     9    18    22    1
    10    16    19    1
    11     5    19    1
    12     6    19    1
    13    12    16   ar
    14    13    16   ar
    15    12    14   ar
    16     1    12    1
    17    13    15   ar
    18     2    13    1
    19    14    17   ar
    20     3    14    1
    21    15    17   ar
    22     4    15    1
    23    17    24    1
    24    11    24    1
@<TRIPOS>SUBSTRUCTURE
     1 lig         1 TEMP              0 ****  ****    0 ROOT


########## Name:		ligand
########## HA_RMSDs:		9.8737
########## HA_RMSDh:		9.8325
########## HA_RMSDm:		8.6667
########## Cluster Size:	2
##########    Grid Score:          -19.608383
##########      Grid_vdw:          -16.688015
##########       Grid_es:           -2.920367
##########    Int_energy:            2.417413

@<TRIPOS>MOLECULE
ligand
 24 24 1 0 0
SMALL
No Charge or Current Charge


@<TRIPOS>ATOM
      1 H1         14.1666   11.5516   25.6179 H       1  lig         0.1313
      2 H2         13.3887   10.2547   21.6242 H       1  lig         0.1473
      3 H3         11.9568   12.5831   25.6749 H       1  lig         0.1394
      4 H4         11.1755   11.3399   21.6569 H       1  lig         0.1574
      5 H5         15.5419    9.9129   24.5978 H       1  lig         0.1170
      6 H6         15.2438    9.2620   23.0183 H       1  lig         0.0678
      7 H7         16.2674   11.2639   21.9462 H       1  lig         0.0912
      8 H8         17.6620    9.3915   22.6528 H       1  lig         0.4249
      9 H9         18.5167   10.8085   22.8404 H       1  lig         0.4256
     10 H10        17.8389   10.0658   24.1738 H       1  lig         0.4835
     11 H11         9.7747   12.4232   22.9618 H       1  lig         0.4236
     12 C1         13.5239   11.5026   24.7412 C.ar    1  lig        -0.1098
     13 C2         13.0660   10.7847   22.5191 C.ar    1  lig        -0.0948
     14 C3         12.2825   12.0758   24.7723 C.ar    1  lig        -0.2079
     15 C4         11.8261   11.3946   22.5255 C.ar    1  lig        -0.1468
     16 C5         13.9240   10.8592   23.6103 C.ar    1  lig        -0.1510
     17 C6         11.4493   12.0617   23.6851 C.ar    1  lig         0.1263
     18 C7         16.4875   12.3787   23.7266 C.2     1  lig         0.9365
     19 C8         15.2897   10.2001   23.5749 C.3     1  lig        -0.0459
     20 C9         16.4247   11.0518   23.0054 C.3     1  lig        -0.0743
     21 N1         17.6672   10.2957   23.1572 N.4     1  lig        -0.8330
     22 O1         17.1656   12.3730   24.7517 O.co2   1  lig        -0.7110
     23 O2         15.8717   13.4126   23.3382 O.co2   1  lig        -0.8016
     24 O3         10.3018   12.6024   23.7950 O.3     1  lig        -0.4958
@<TRIPOS>BOND
     1    20    21    1
     2     8    21    1
     3     9    21    1
     4    10    21    1
     5    18    20    1
     6    19    20    1
     7     7    20    1
     8    18    23    1
     9    18    22    1
    10    16    19    1
    11     5    19    1
    12     6    19    1
    13    12    16   ar
    14    13    16   ar
    15    12    14   ar
    16     1    12    1
    17    13    15   ar
    18     2    13    1
    19    14    17   ar
    20     3    14    1
    21    15    17   ar
    22     4    15    1
    23    17    24    1
    24    11    24    1
@<TRIPOS>SUBSTRUCTURE
     1 lig         1 TEMP              0 ****  ****    0 ROOT


########## Name:		ligand
########## HA_RMSDs:		13.5699
########## HA_RMSDh:		13.4998
########## HA_RMSDm:		11.6096
########## Cluster Size:	1
##########    Grid Score:          -19.473083
##########      Grid_vdw:          -14.446274
##########       Grid_es:           -5.026809
##########    Int_energy:            1.023262

@<TRIPOS>MOLECULE
ligand
 24 24 1 0 0
SMALL
No Charge or Current Charge


@<TRIPOS>ATOM
      1 H1         26.3543    8.6547   14.9946 H       1  lig         0.1313
      2 H2         25.1225    5.0628   16.9486 H       1  lig         0.1473
      3 H3         27.1471    9.5064   17.1386 H       1  lig         0.1394
      4 H4         25.8740    5.9389   19.1268 H       1  lig         0.1574
      5 H5         25.9494    6.5186   13.7634 H       1  lig         0.1170
      6 H6         25.1564    5.1824   14.5336 H       1  lig         0.0678
      7 H7         23.6526    7.8096   14.3817 H       1  lig         0.0912
      8 H8         22.7842    5.8831   15.6001 H       1  lig         0.4249
      9 H9         21.8369    6.1501   14.2567 H       1  lig         0.4256
     10 H10        22.9622    4.9162   14.2463 H       1  lig         0.4835
     11 H11        26.8117    7.6797   20.0906 H       1  lig         0.4236
     12 C1         26.2376    8.0516   15.8929 C.ar    1  lig        -0.1098
     13 C2         25.5652    6.0563   17.0016 C.ar    1  lig        -0.0948
     14 C3         26.6858    8.5248   17.0954 C.ar    1  lig        -0.2079
     15 C4         25.9780    6.5407   18.2281 C.ar    1  lig        -0.1468
     16 C5         25.6687    6.8161   15.8421 C.ar    1  lig        -0.1510
     17 C6         26.5376    7.8127   18.2560 C.ar    1  lig         0.1263
     18 C7         23.8048    6.8321   12.5157 C.2     1  lig         0.9365
     19 C8         25.1902    6.2734   14.5089 C.3     1  lig        -0.0459
     20 C9         23.8358    6.7939   14.0264 C.3     1  lig        -0.0743
     21 N1         22.8025    5.9104   14.5653 N.4     1  lig        -0.8330
     22 O1         23.3007    5.8428   11.9885 O.co2   1  lig        -0.7110
     23 O2         24.2839    7.7824   11.8329 O.co2   1  lig        -0.8016
     24 O3         26.9946    8.3116   19.3347 O.3     1  lig        -0.4958
@<TRIPOS>BOND
     1    20    21    1
     2     8    21    1
     3     9    21    1
     4    10    21    1
     5    18    20    1
     6    19    20    1
     7     7    20    1
     8    18    23    1
     9    18    22    1
    10    16    19    1
    11     5    19    1
    12     6    19    1
    13    12    16   ar
    14    13    16   ar
    15    12    14   ar
    16     1    12    1
    17    13    15   ar
    18     2    13    1
    19    14    17   ar
    20     3    14    1
    21    15    17   ar
    22     4    15    1
    23    17    24    1
    24    11    24    1
@<TRIPOS>SUBSTRUCTURE
     1 lig         1 TEMP              0 ****  ****    0 ROOT


########## Name:		ligand
########## HA_RMSDs:		13.5342
########## HA_RMSDh:		13.5197
########## HA_RMSDm:		11.6658
########## Cluster Size:	3
##########    Grid Score:          -19.437738
##########      Grid_vdw:          -18.670918
##########       Grid_es:           -0.766821
##########    Int_energy:            2.082960

@<TRIPOS>MOLECULE
ligand
 24 24 1 0 0
SMALL
No Charge or Current Charge


@<TRIPOS>ATOM
      1 H1          7.1985    9.5082   23.4816 H       1  lig         0.1313
      2 H2         10.3820    9.2611   20.6459 H       1  lig         0.1473
      3 H3          8.4281   11.2575   24.6555 H       1  lig         0.1394
      4 H4         11.6530   10.9913   21.8573 H       1  lig         0.1574
      5 H5          6.9080    8.4906   21.2300 H       1  lig         0.1170
      6 H6          8.2719    8.1472   20.2155 H       1  lig         0.0678
      7 H7          7.8384    6.7813   22.9203 H       1  lig         0.0912
      8 H8         10.1288    6.8704   22.0859 H       1  lig         0.4249
      9 H9          9.5615    5.3101   21.9544 H       1  lig         0.4256
     10 H10         9.6356    6.2829   20.5990 H       1  lig         0.4835
     11 H11        11.6273   12.2318   23.6954 H       1  lig         0.4236
     12 C1          8.1758    9.8195   23.1182 C.ar    1  lig        -0.1098
     13 C2          9.9586    9.7037   21.5462 C.ar    1  lig        -0.0948
     14 C3          8.8651   10.8036   23.7717 C.ar    1  lig        -0.2079
     15 C4         10.6814   10.6687   22.2214 C.ar    1  lig        -0.1468
     16 C5          8.7235    9.2601   22.0047 C.ar    1  lig        -0.1510
     17 C6         10.1087   11.2100   23.3663 C.ar    1  lig         0.1263
     18 C7          7.0175    5.8781   21.1966 C.2     1  lig         0.9365
     19 C8          7.9558    8.1845   21.2598 C.3     1  lig        -0.0459
     20 C9          8.0440    6.7760   21.8483 C.3     1  lig        -0.0743
     21 N1          9.4049    6.2874   21.6298 N.4     1  lig        -0.8330
     22 O1          7.3718    4.7090   21.0614 O.co2   1  lig        -0.7110
     23 O2          5.8930    6.2873   20.7880 O.co2   1  lig        -0.8016
     24 O3         10.6820   12.1432   24.0158 O.3     1  lig        -0.4958
@<TRIPOS>BOND
     1    20    21    1
     2     8    21    1
     3     9    21    1
     4    10    21    1
     5    18    20    1
     6    19    20    1
     7     7    20    1
     8    18    23    1
     9    18    22    1
    10    16    19    1
    11     5    19    1
    12     6    19    1
    13    12    16   ar
    14    13    16   ar
    15    12    14   ar
    16     1    12    1
    17    13    15   ar
    18     2    13    1
    19    14    17   ar
    20     3    14    1
    21    15    17   ar
    22     4    15    1
    23    17    24    1
    24    11    24    1
@<TRIPOS>SUBSTRUCTURE
     1 lig         1 TEMP              0 ****  ****    0 ROOT


########## Name:		ligand
########## HA_RMSDs:		12.9586
########## HA_RMSDh:		12.9474
########## HA_RMSDm:		10.8369
########## Cluster Size:	1
##########    Grid Score:          -19.424400
##########      Grid_vdw:          -15.416348
##########       Grid_es:           -4.008052
##########    Int_energy:            2.411676

@<TRIPOS>MOLECULE
ligand
 24 24 1 0 0
SMALL
No Charge or Current Charge


@<TRIPOS>ATOM
      1 H1         10.0214    8.9746   24.8752 H       1  lig         0.1313
      2 H2          9.5205    9.0503   20.6349 H       1  lig         0.1473
      3 H3          7.6343    8.5324   25.1131 H       1  lig         0.1394
      4 H4          7.0986    8.6558   20.8707 H       1  lig         0.1574
      5 H5         11.8989    8.9152   23.4709 H       1  lig         0.1170
      6 H6         11.8004    8.7456   21.7479 H       1  lig         0.0678
      7 H7         11.0548   11.3419   21.8586 H       1  lig         0.0912
      8 H8         12.9922   10.3866   20.7255 H       1  lig         0.4249
      9 H9         13.4593   11.7656   21.5340 H       1  lig         0.4256
     10 H10        13.8129   10.2660   22.1785 H       1  lig         0.4835
     11 H11         5.4576    8.6431   22.4395 H       1  lig         0.4236
     12 C1          9.3918    8.9129   23.9898 C.ar    1  lig        -0.1098
     13 C2          9.0902    8.9442   21.6296 C.ar    1  lig        -0.0948
     14 C3          8.0539    8.6601   24.1203 C.ar    1  lig        -0.2079
     15 C4          7.7307    8.7291   21.7514 C.ar    1  lig        -0.1468
     16 C5          9.9151    9.0626   22.7422 C.ar    1  lig        -0.1510
     17 C6          7.2181    8.5992   23.0368 C.ar    1  lig         0.1263
     18 C7         11.9516   11.4424   23.7682 C.2     1  lig         0.9365
     19 C8         11.4020    9.3196   22.5868 C.3     1  lig        -0.0459
     20 C9         11.8095   10.7834   22.4154 C.3     1  lig        -0.0743
     21 N1         13.0658   10.8103   21.6672 N.4     1  lig        -0.8330
     22 O1         11.5534   12.6043   23.8163 O.co2   1  lig        -0.7110
     23 O2         12.4662   10.8701   24.7714 O.co2   1  lig        -0.8016
     24 O3          5.9867    8.3438   23.2361 O.3     1  lig        -0.4958
@<TRIPOS>BOND
     1    20    21    1
     2     8    21    1
     3     9    21    1
     4    10    21    1
     5    18    20    1
     6    19    20    1
     7     7    20    1
     8    18    23    1
     9    18    22    1
    10    16    19    1
    11     5    19    1
    12     6    19    1
    13    12    16   ar
    14    13    16   ar
    15    12    14   ar
    16     1    12    1
    17    13    15   ar
    18     2    13    1
    19    14    17   ar
    20     3    14    1
    21    15    17   ar
    22     4    15    1
    23    17    24    1
    24    11    24    1
@<TRIPOS>SUBSTRUCTURE
     1 lig         1 TEMP              0 ****  ****    0 ROOT


########## Name:		ligand
########## HA_RMSDs:		13.8390
########## HA_RMSDh:		13.7590
########## HA_RMSDm:		11.4388
########## Cluster Size:	2
##########    Grid Score:          -19.365404
##########      Grid_vdw:          -15.858799
##########       Grid_es:           -3.506605
##########    Int_energy:            1.292490

@<TRIPOS>MOLECULE
ligand
 24 24 1 0 0
SMALL
No Charge or Current Charge


@<TRIPOS>ATOM
      1 H1          8.7772    8.9325   20.6858 H       1  lig         0.1313
      2 H2         10.8144    8.1389   24.3542 H       1  lig         0.1473
      3 H3         10.8215    9.9338   19.8090 H       1  lig         0.1394
      4 H4         12.8677    9.1965   23.4927 H       1  lig         0.1574
      5 H5          8.1376    7.0279   22.4621 H       1  lig         0.1170
      6 H6          8.5965    7.3903   24.0947 H       1  lig         0.0678
      7 H7          6.9302    9.2373   22.3082 H       1  lig         0.0912
      8 H8          8.3526   10.4075   23.9074 H       1  lig         0.4249
      9 H9          6.7697   10.5007   24.4165 H       1  lig         0.4256
     10 H10         7.8136    9.4203   25.1460 H       1  lig         0.4835
     11 H11        12.7394   10.5453   20.1529 H       1  lig         0.4236
     12 C1          9.6644    8.9890   21.3135 C.ar    1  lig        -0.1098
     13 C2         10.8214    8.5509   23.3462 C.ar    1  lig        -0.0948
     14 C3         10.8133    9.5454   20.8225 C.ar    1  lig        -0.2079
     15 C4         11.9755    9.1468   22.8746 C.ar    1  lig        -0.1468
     16 C5          9.6618    8.4944   22.5816 C.ar    1  lig        -0.1510
     17 C6         11.9461    9.6614   21.5838 C.ar    1  lig         0.1263
     18 C7          5.9868    7.9935   23.7308 C.2     1  lig         0.9365
     19 C8          8.3991    7.8542   23.1263 C.3     1  lig        -0.0459
     20 C9          7.1903    8.7802   23.2647 C.3     1  lig        -0.0743
     21 N1          7.5452    9.8358   24.2126 N.4     1  lig        -0.8330
     22 O1          5.9565    7.7716   24.9393 O.co2   1  lig        -0.7110
     23 O2          5.0909    7.5626   22.9494 O.co2   1  lig        -0.8016
     24 O3         12.9822   10.1764   21.0523 O.3     1  lig        -0.4958
@<TRIPOS>BOND
     1    20    21    1
     2     8    21    1
     3     9    21    1
     4    10    21    1
     5    18    20    1
     6    19    20    1
     7     7    20    1
     8    18    23    1
     9    18    22    1
    10    16    19    1
    11     5    19    1
    12     6    19    1
    13    12    16   ar
    14    13    16   ar
    15    12    14   ar
    16     1    12    1
    17    13    15   ar
    18     2    13    1
    19    14    17   ar
    20     3    14    1
    21    15    17   ar
    22     4    15    1
    23    17    24    1
    24    11    24    1
@<TRIPOS>SUBSTRUCTURE
     1 lig         1 TEMP              0 ****  ****    0 ROOT


########## Name:		ligand
########## HA_RMSDs:		10.4371
########## HA_RMSDh:		10.4205
########## HA_RMSDm:		8.0903
########## Cluster Size:	4
##########    Grid Score:          -19.355612
##########      Grid_vdw:          -12.924350
##########       Grid_es:           -6.431262
##########    Int_energy:            2.365507

@<TRIPOS>MOLECULE
ligand
 24 24 1 0 0
SMALL
No Charge or Current Charge


@<TRIPOS>ATOM
      1 H1         17.1100   16.9858   26.2563 H       1  lig         0.1313
      2 H2         14.1178   14.1442   27.3560 H       1  lig         0.1473
      3 H3         16.1305   18.5720   27.8295 H       1  lig         0.1394
      4 H4         13.0920   15.7608   28.9088 H       1  lig         0.1574
      5 H5         15.6308   13.5979   25.7105 H       1  lig         0.1170
      6 H6         16.2528   14.8702   24.7097 H       1  lig         0.0678
      7 H7         18.3555   14.8974   26.2216 H       1  lig         0.0912
      8 H8         18.2336   13.8421   24.0258 H       1  lig         0.4249
      9 H9         19.1653   12.8980   25.0328 H       1  lig         0.4256
     10 H10        17.5898   12.4537   24.7020 H       1  lig         0.4835
     11 H11        13.1958   17.8896   29.5582 H       1  lig         0.4236
     12 C1         16.2265   16.7064   26.8268 C.ar    1  lig        -0.1098
     13 C2         14.5537   15.1367   27.4598 C.ar    1  lig        -0.0948
     14 C3         15.6783   17.5921   27.7131 C.ar    1  lig        -0.2079
     15 C4         13.9679   16.0376   28.3285 C.ar    1  lig        -0.1468
     16 C5         15.6616   15.4753   26.6915 C.ar    1  lig        -0.1510
     17 C6         14.5521   17.2944   28.4338 C.ar    1  lig         0.1263
     18 C7         17.7184   13.2028   27.3094 C.2     1  lig         0.9365
     19 C8         16.2768   14.4780   25.7283 C.3     1  lig        -0.0459
     20 C9         17.7055   14.0376   26.0494 C.3     1  lig        -0.0743
     21 N1         18.2083   13.2870   24.8994 N.4     1  lig        -0.8330
     22 O1         18.7728   13.2430   27.9396 O.co2   1  lig        -0.7110
     23 O2         16.7436   12.4891   27.6823 O.co2   1  lig        -0.8016
     24 O3         14.1094   18.1642   29.2516 O.3     1  lig        -0.4958
@<TRIPOS>BOND
     1    20    21    1
     2     8    21    1
     3     9    21    1
     4    10    21    1
     5    18    20    1
     6    19    20    1
     7     7    20    1
     8    18    23    1
     9    18    22    1
    10    16    19    1
    11     5    19    1
    12     6    19    1
    13    12    16   ar
    14    13    16   ar
    15    12    14   ar
    16     1    12    1
    17    13    15   ar
    18     2    13    1
    19    14    17   ar
    20     3    14    1
    21    15    17   ar
    22     4    15    1
    23    17    24    1
    24    11    24    1
@<TRIPOS>SUBSTRUCTURE
     1 lig         1 TEMP              0 ****  ****    0 ROOT


########## Name:		ligand
########## HA_RMSDs:		13.9334
########## HA_RMSDh:		13.8908
########## HA_RMSDm:		11.8851
########## Cluster Size:	2
##########    Grid Score:          -19.274187
##########      Grid_vdw:          -15.728502
##########       Grid_es:           -3.545686
##########    Int_energy:            2.529977

@<TRIPOS>MOLECULE
ligand
 24 24 1 0 0
SMALL
No Charge or Current Charge


@<TRIPOS>ATOM
      1 H1          9.4984    6.5329   23.0617 H       1  lig         0.1313
      2 H2          9.0188    9.9398   20.5319 H       1  lig         0.1473
      3 H3         11.8656    7.0776   23.2857 H       1  lig         0.1394
      4 H4         11.4205   10.4655   20.7119 H       1  lig         0.1574
      5 H5          7.1826    8.6560   21.0375 H       1  lig         0.1170
      6 H6          7.5010    6.9514   21.0562 H       1  lig         0.0678
      7 H7          7.0847    6.7801   23.4399 H       1  lig         0.0912
      8 H8          5.1278    7.0395   22.0069 H       1  lig         0.4249
      9 H9          4.8254    7.7603   23.4775 H       1  lig         0.4256
     10 H10         5.2103    8.7041   22.1545 H       1  lig         0.4835
     11 H11        13.2387    9.9319   21.8804 H       1  lig         0.4236
     12 C1          9.9075    7.3940   22.5368 C.ar    1  lig        -0.1098
     13 C2          9.6624    9.3012   21.1350 C.ar    1  lig        -0.0948
     14 C3         11.2333    7.7044   22.6648 C.ar    1  lig        -0.2079
     15 C4         11.0083    9.6009   21.2249 C.ar    1  lig        -0.1468
     16 C5          9.1166    8.1887   21.7650 C.ar    1  lig        -0.1510
     17 C6         11.7978    8.7627   22.0033 C.ar    1  lig         0.1263
     18 C7          7.2832    8.8308   23.9046 C.2     1  lig         0.9365
     19 C8          7.6401    7.8658   21.6362 C.3     1  lig        -0.0459
     20 C9          6.8713    7.7326   22.9512 C.3     1  lig        -0.0743
     21 N1          5.4438    7.7954   22.6399 N.4     1  lig        -0.8330
     22 O1          7.7107    8.4357   24.9871 O.co2   1  lig        -0.7110
     23 O2          7.1730   10.0620   23.6385 O.co2   1  lig        -0.8016
     24 O3         13.0358    8.9990   22.1847 O.3     1  lig        -0.4958
@<TRIPOS>BOND
     1    20    21    1
     2     8    21    1
     3     9    21    1
     4    10    21    1
     5    18    20    1
     6    19    20    1
     7     7    20    1
     8    18    23    1
     9    18    22    1
    10    16    19    1
    11     5    19    1
    12     6    19    1
    13    12    16   ar
    14    13    16   ar
    15    12    14   ar
    16     1    12    1
    17    13    15   ar
    18     2    13    1
    19    14    17   ar
    20     3    14    1
    21    15    17   ar
    22     4    15    1
    23    17    24    1
    24    11    24    1
@<TRIPOS>SUBSTRUCTURE
     1 lig         1 TEMP              0 ****  ****    0 ROOT


########## Name:		ligand
########## HA_RMSDs:		10.9126
########## HA_RMSDh:		10.8778
########## HA_RMSDm:		9.2108
########## Cluster Size:	7
##########    Grid Score:          -19.252134
##########      Grid_vdw:          -16.355801
##########       Grid_es:           -2.896334
##########    Int_energy:            1.813927

@<TRIPOS>MOLECULE
ligand
 24 24 1 0 0
SMALL
No Charge or Current Charge


@<TRIPOS>ATOM
      1 H1         14.1903   10.5752   24.1342 H       1  lig         0.1313
      2 H2         10.4997   12.6588   23.6093 H       1  lig         0.1473
      3 H3         14.0618   11.0245   26.5284 H       1  lig         0.1394
      4 H4         10.3907   13.1612   26.0202 H       1  lig         0.1574
      5 H5         11.7092   11.9710   21.7388 H       1  lig         0.1170
      6 H6         13.4025   11.6085   21.8314 H       1  lig         0.0678
      7 H7         12.3770    9.1782   22.6382 H       1  lig         0.0912
      8 H8         14.0110    9.6376   20.8863 H       1  lig         0.4249
      9 H9         12.8514    8.6009   20.2912 H       1  lig         0.4256
     10 H10        12.8062   10.2193   19.8816 H       1  lig         0.4835
     11 H11        12.7585   11.5689   28.1199 H       1  lig         0.4236
     12 C1         13.3554   11.1478   24.5332 C.ar    1  lig        -0.1098
     13 C2         11.2947   12.3074   24.2654 C.ar    1  lig        -0.0948
     14 C3         13.2784   11.3968   25.8759 C.ar    1  lig        -0.2079
     15 C4         11.2274   12.5991   25.6143 C.ar    1  lig        -0.1468
     16 C5         12.3655   11.6084   23.7202 C.ar    1  lig        -0.1510
     17 C6         12.2604   12.1344   26.4198 C.ar    1  lig         0.1263
     18 C7         10.6819    9.7042   21.4934 C.2     1  lig         0.9365
     19 C8         12.4303   11.3167   22.2331 C.3     1  lig        -0.0459
     20 C9         12.1469    9.8703   21.8261 C.3     1  lig        -0.0743
     21 N1         12.9997    9.5557   20.6804 N.4     1  lig        -0.8330
     22 O1         10.4597    9.0992   20.4468 O.co2   1  lig        -0.7110
     23 O2          9.7482   10.1720   22.2062 O.co2   1  lig        -0.8016
     24 O3         12.2477   12.3108   27.6808 O.3     1  lig        -0.4958
@<TRIPOS>BOND
     1    20    21    1
     2     8    21    1
     3     9    21    1
     4    10    21    1
     5    18    20    1
     6    19    20    1
     7     7    20    1
     8    18    23    1
     9    18    22    1
    10    16    19    1
    11     5    19    1
    12     6    19    1
    13    12    16   ar
    14    13    16   ar
    15    12    14   ar
    16     1    12    1
    17    13    15   ar
    18     2    13    1
    19    14    17   ar
    20     3    14    1
    21    15    17   ar
    22     4    15    1
    23    17    24    1
    24    11    24    1
@<TRIPOS>SUBSTRUCTURE
     1 lig         1 TEMP              0 ****  ****    0 ROOT


########## Name:		ligand
########## HA_RMSDs:		13.3189
########## HA_RMSDh:		13.2536
########## HA_RMSDm:		11.7625
########## Cluster Size:	1
##########    Grid Score:          -19.249130
##########      Grid_vdw:          -15.541742
##########       Grid_es:           -3.707387
##########    Int_energy:            3.333441

@<TRIPOS>MOLECULE
ligand
 24 24 1 0 0
SMALL
No Charge or Current Charge


@<TRIPOS>ATOM
      1 H1          9.5502    7.4105   23.8753 H       1  lig         0.1313
      2 H2         11.1513   10.9068   22.0182 H       1  lig         0.1473
      3 H3          8.8711    6.5981   21.6778 H       1  lig         0.1394
      4 H4         10.4210   10.1158   19.8006 H       1  lig         0.1574
      5 H5         11.2338    8.8720   24.9900 H       1  lig         0.1170
      6 H6         11.6376   10.4290   24.3419 H       1  lig         0.0678
      7 H7         10.1425   10.8227   26.2018 H       1  lig         0.0912
      8 H8          9.2329    8.5602   26.2604 H       1  lig         0.4249
      9 H9          7.9758    9.6526   26.2555 H       1  lig         0.4256
     10 H10         8.3761    8.8421   24.8512 H       1  lig         0.4835
     11 H11         9.1793    8.5275   18.8162 H       1  lig         0.4236
     12 C1          9.7421    8.0159   22.9917 C.ar    1  lig        -0.1098
     13 C2         10.6332    9.9527   21.9346 C.ar    1  lig        -0.0948
     14 C3          9.3668    7.5604   21.7579 C.ar    1  lig        -0.2079
     15 C4         10.2227    9.5208   20.6879 C.ar    1  lig        -0.1468
     16 C5         10.3721    9.2188   23.0860 C.ar    1  lig        -0.1510
     17 C6          9.5643    8.2986   20.6211 C.ar    1  lig         0.1263
     18 C7          9.0291   11.4578   24.5232 C.2     1  lig         0.9365
     19 C8         10.8132    9.7212   24.4476 C.3     1  lig        -0.0459
     20 C9          9.7225   10.3651   25.3042 C.3     1  lig        -0.0743
     21 N1          8.7899    9.3114   25.7023 N.4     1  lig        -0.8330
     22 O1          7.9720   11.1187   23.9959 O.co2   1  lig        -0.7110
     23 O2          9.5011   12.6228   24.3860 O.co2   1  lig        -0.8016
     24 O3          9.2025    7.8012   19.5061 O.3     1  lig        -0.4958
@<TRIPOS>BOND
     1    20    21    1
     2     8    21    1
     3     9    21    1
     4    10    21    1
     5    18    20    1
     6    19    20    1
     7     7    20    1
     8    18    23    1
     9    18    22    1
    10    16    19    1
    11     5    19    1
    12     6    19    1
    13    12    16   ar
    14    13    16   ar
    15    12    14   ar
    16     1    12    1
    17    13    15   ar
    18     2    13    1
    19    14    17   ar
    20     3    14    1
    21    15    17   ar
    22     4    15    1
    23    17    24    1
    24    11    24    1
@<TRIPOS>SUBSTRUCTURE
     1 lig         1 TEMP              0 ****  ****    0 ROOT


########## Name:		ligand
########## HA_RMSDs:		15.0989
########## HA_RMSDh:		15.0516
########## HA_RMSDm:		12.2666
########## Cluster Size:	1
##########    Grid Score:          -19.216799
##########      Grid_vdw:          -10.137114
##########       Grid_es:           -9.079685
##########    Int_energy:            2.517292

@<TRIPOS>MOLECULE
ligand
 24 24 1 0 0
SMALL
No Charge or Current Charge


@<TRIPOS>ATOM
      1 H1         26.8251    3.6080   14.7841 H       1  lig         0.1313
      2 H2         24.4506    6.9883   15.8668 H       1  lig         0.1473
      3 H3         24.8477    2.1957   14.9987 H       1  lig         0.1394
      4 H4         22.4607    5.5585   16.1364 H       1  lig         0.1574
      5 H5         27.0645    6.8757   16.0886 H       1  lig         0.1170
      6 H6         27.8963    5.6624   15.1703 H       1  lig         0.0678
      7 H7         26.5176    6.7149   13.1066 H       1  lig         0.0912
      8 H8         28.9380    6.6296   13.3966 H       1  lig         0.4249
      9 H9         28.5093    8.1388   12.8378 H       1  lig         0.4256
     10 H10        28.8816    7.9267   14.4519 H       1  lig         0.4835
     11 H11        21.7162    3.4978   15.5913 H       1  lig         0.4236
     12 C1         25.8766    4.0474   15.0866 C.ar    1  lig        -0.1098
     13 C2         24.5327    5.9177   15.6856 C.ar    1  lig        -0.0948
     14 C3         24.7653    3.2586   15.2029 C.ar    1  lig        -0.2079
     15 C4         23.4130    5.1239   15.8450 C.ar    1  lig        -0.1468
     16 C5         25.7661    5.3813   15.3342 C.ar    1  lig        -0.1510
     17 C6         23.5569    3.7624   15.6052 C.ar    1  lig         0.1263
     18 C7         26.2238    8.4542   14.2682 C.2     1  lig         0.9365
     19 C8         26.9879    6.2678   15.1848 C.3     1  lig        -0.0459
     20 C9         26.9953    7.1902   13.9653 C.3     1  lig        -0.0743
     21 N1         28.3904    7.4760   13.6326 N.4     1  lig        -0.8330
     22 O1         26.7797    9.2174   15.0550 O.co2   1  lig        -0.7110
     23 O2         25.0828    8.7066   13.7853 O.co2   1  lig        -0.8016
     24 O3         22.5633    2.9691   15.6746 O.3     1  lig        -0.4958
@<TRIPOS>BOND
     1    20    21    1
     2     8    21    1
     3     9    21    1
     4    10    21    1
     5    18    20    1
     6    19    20    1
     7     7    20    1
     8    18    23    1
     9    18    22    1
    10    16    19    1
    11     5    19    1
    12     6    19    1
    13    12    16   ar
    14    13    16   ar
    15    12    14   ar
    16     1    12    1
    17    13    15   ar
    18     2    13    1
    19    14    17   ar
    20     3    14    1
    21    15    17   ar
    22     4    15    1
    23    17    24    1
    24    11    24    1
@<TRIPOS>SUBSTRUCTURE
     1 lig         1 TEMP              0 ****  ****    0 ROOT


########## Name:		ligand
########## HA_RMSDs:		14.7335
########## HA_RMSDh:		14.6784
########## HA_RMSDm:		11.9844
########## Cluster Size:	1
##########    Grid Score:          -19.088207
##########      Grid_vdw:          -13.791904
##########       Grid_es:           -5.296302
##########    Int_energy:            3.685721

@<TRIPOS>MOLECULE
ligand
 24 24 1 0 0
SMALL
No Charge or Current Charge


@<TRIPOS>ATOM
      1 H1         29.7972    7.2361   15.3086 H       1  lig         0.1313
      2 H2         26.3687    8.7725   17.3388 H       1  lig         0.1473
      3 H3         30.6644    6.4455   17.4471 H       1  lig         0.1394
      4 H4         27.2644    8.0224   19.5095 H       1  lig         0.1574
      5 H5         26.7900    9.3651   15.0734 H       1  lig         0.1170
      6 H6         28.2799    9.0017   14.2638 H       1  lig         0.0678
      7 H7         26.4629    6.6443   14.6323 H       1  lig         0.0912
      8 H8         28.5717    6.5936   13.4074 H       1  lig         0.4249
      9 H9         27.3178    6.3283   12.3441 H       1  lig         0.4256
     10 H10        28.0485    7.8287   12.4073 H       1  lig         0.4835
     11 H11        29.3985    7.3971   20.4171 H       1  lig         0.4236
     12 C1         29.2348    7.4201   16.2218 C.ar    1  lig        -0.1098
     13 C2         27.3302    8.2625   17.3732 C.ar    1  lig        -0.0948
     14 C3         29.7165    6.9735   17.4215 C.ar    1  lig        -0.2079
     15 C4         27.8264    7.8510   18.5954 C.ar    1  lig        -0.1468
     16 C5         28.0408    8.0732   16.1935 C.ar    1  lig        -0.1510
     17 C6         29.0565    7.2040   18.5994 C.ar    1  lig         0.1263
     18 C7         25.5315    8.0811   13.3958 C.2     1  lig         0.9365
     19 C8         27.4874    8.5513   14.8646 C.3     1  lig        -0.0459
     20 C9         26.7756    7.4930   14.0212 C.3     1  lig        -0.0743
     21 N1         27.7193    7.0240   13.0073 N.4     1  lig        -0.8330
     22 O1         25.2355    7.6072   12.3011 O.co2   1  lig        -0.7110
     23 O2         24.8565    9.0089   13.9271 O.co2   1  lig        -0.8016
     24 O3         29.5591    6.7433   19.6748 O.3     1  lig        -0.4958
@<TRIPOS>BOND
     1    20    21    1
     2     8    21    1
     3     9    21    1
     4    10    21    1
     5    18    20    1
     6    19    20    1
     7     7    20    1
     8    18    23    1
     9    18    22    1
    10    16    19    1
    11     5    19    1
    12     6    19    1
    13    12    16   ar
    14    13    16   ar
    15    12    14   ar
    16     1    12    1
    17    13    15   ar
    18     2    13    1
    19    14    17   ar
    20     3    14    1
    21    15    17   ar
    22     4    15    1
    23    17    24    1
    24    11    24    1
@<TRIPOS>SUBSTRUCTURE
     1 lig         1 TEMP              0 ****  ****    0 ROOT


########## Name:		ligand
########## HA_RMSDs:		11.9212
########## HA_RMSDh:		11.8522
########## HA_RMSDm:		9.9924
########## Cluster Size:	2
##########    Grid Score:          -19.022442
##########      Grid_vdw:          -14.761307
##########       Grid_es:           -4.261136
##########    Int_energy:            3.228600

@<TRIPOS>MOLECULE
ligand
 24 24 1 0 0
SMALL
No Charge or Current Charge


@<TRIPOS>ATOM
      1 H1         13.1068    9.2676   20.5413 H       1  lig         0.1313
      2 H2         10.6808   10.4052   23.8666 H       1  lig         0.1473
      3 H3         11.0791    8.8220   19.2606 H       1  lig         0.1394
      4 H4          8.6286    9.9068   22.5951 H       1  lig         0.1574
      5 H5         13.9803   10.6361   22.4151 H       1  lig         0.1170
      6 H6         13.0663   10.8673   23.8706 H       1  lig         0.0678
      7 H7         14.5572    9.2166   24.5869 H       1  lig         0.0912
      8 H8         15.5925    9.0046   22.3884 H       1  lig         0.4249
      9 H9         15.3459    7.4848   23.0232 H       1  lig         0.4256
     10 H10        14.3130    8.0711   21.8491 H       1  lig         0.4835
     11 H11         8.9739    9.2496   19.1467 H       1  lig         0.4236
     12 C1         12.1323    9.4064   21.0054 C.ar    1  lig        -0.1098
     13 C2         10.7607   10.0420   22.8431 C.ar    1  lig        -0.0948
     14 C3         10.9939    9.1620   20.2879 C.ar    1  lig        -0.2079
     15 C4          9.6046    9.7599   22.1407 C.ar    1  lig        -0.1468
     16 C5         12.0203    9.8419   22.2901 C.ar    1  lig        -0.1510
     17 C6          9.7467    9.2980   20.8375 C.ar    1  lig         0.1263
     18 C7         12.9323    7.9290   24.1835 C.2     1  lig         0.9365
     19 C8         13.2772   10.1381   23.0859 C.3     1  lig        -0.0459
     20 C9         13.9664    8.9272   23.7158 C.3     1  lig        -0.0743
     21 N1         14.8576    8.3501   22.7101 N.4     1  lig        -0.8330
     22 O1         12.7128    7.0116   23.3956 O.co2   1  lig        -0.7110
     23 O2         12.3102    8.0321   25.2795 O.co2   1  lig        -0.8016
     24 O3          8.7329    9.0679   20.1023 O.3     1  lig        -0.4958
@<TRIPOS>BOND
     1    20    21    1
     2     8    21    1
     3     9    21    1
     4    10    21    1
     5    18    20    1
     6    19    20    1
     7     7    20    1
     8    18    23    1
     9    18    22    1
    10    16    19    1
    11     5    19    1
    12     6    19    1
    13    12    16   ar
    14    13    16   ar
    15    12    14   ar
    16     1    12    1
    17    13    15   ar
    18     2    13    1
    19    14    17   ar
    20     3    14    1
    21    15    17   ar
    22     4    15    1
    23    17    24    1
    24    11    24    1
@<TRIPOS>SUBSTRUCTURE
     1 lig         1 TEMP              0 ****  ****    0 ROOT


########## Name:		ligand
########## HA_RMSDs:		10.3027
########## HA_RMSDh:		10.2625
########## HA_RMSDm:		9.1453
########## Cluster Size:	1
##########    Grid Score:          -19.019075
##########      Grid_vdw:          -15.365266
##########       Grid_es:           -3.653810
##########    Int_energy:            2.031789

@<TRIPOS>MOLECULE
ligand
 24 24 1 0 0
SMALL
No Charge or Current Charge


@<TRIPOS>ATOM
      1 H1         14.7735    9.9925   24.8795 H       1  lig         0.1313
      2 H2         13.2487    8.9538   21.0281 H       1  lig         0.1473
      3 H3         13.0744   11.7351   25.0423 H       1  lig         0.1394
      4 H4         11.5630   10.7472   21.1641 H       1  lig         0.1574
      5 H5         15.3430    7.8986   23.8431 H       1  lig         0.1170
      6 H6         14.7808    7.4365   22.2690 H       1  lig         0.0678
      7 H7         16.3794    9.2384   21.2940 H       1  lig         0.0912
      8 H8         16.8067    6.8368   21.2941 H       1  lig         0.4249
      9 H9         18.2335    7.6439   21.5880 H       1  lig         0.4256
     10 H10        17.4142    6.9205   22.8508 H       1  lig         0.4835
     11 H11        10.8336   12.3798   22.4499 H       1  lig         0.4236
     12 C1         14.0802   10.1508   24.0558 C.ar    1  lig        -0.1098
     13 C2         13.2097    9.5850   21.9146 C.ar    1  lig        -0.0948
     14 C3         13.1234   11.1239   24.1467 C.ar    1  lig        -0.2079
     15 C4         12.2649   10.5913   21.9788 C.ar    1  lig        -0.1468
     16 C5         14.1315    9.3803   22.9348 C.ar    1  lig        -0.1510
     17 C6         12.2461   11.3764   23.1255 C.ar    1  lig         0.1263
     18 C7         17.2527    9.6114   23.1805 C.2     1  lig         0.9365
     19 C8         15.1741    8.2831   22.8351 C.3     1  lig        -0.0459
     20 C9         16.5169    8.6946   22.2304 C.3     1  lig        -0.0743
     21 N1         17.2761    7.4739   21.9617 N.4     1  lig        -0.8330
     22 O1         17.8896    9.0343   24.0591 O.co2   1  lig        -0.7110
     23 O2         17.2015   10.8729   23.1111 O.co2   1  lig        -0.8016
     24 O3         11.3725   12.2881   23.2897 O.3     1  lig        -0.4958
@<TRIPOS>BOND
     1    20    21    1
     2     8    21    1
     3     9    21    1
     4    10    21    1
     5    18    20    1
     6    19    20    1
     7     7    20    1
     8    18    23    1
     9    18    22    1
    10    16    19    1
    11     5    19    1
    12     6    19    1
    13    12    16   ar
    14    13    16   ar
    15    12    14   ar
    16     1    12    1
    17    13    15   ar
    18     2    13    1
    19    14    17   ar
    20     3    14    1
    21    15    17   ar
    22     4    15    1
    23    17    24    1
    24    11    24    1
@<TRIPOS>SUBSTRUCTURE
     1 lig         1 TEMP              0 ****  ****    0 ROOT


########## Name:		ligand
########## HA_RMSDs:		12.1369
########## HA_RMSDh:		12.0888
########## HA_RMSDm:		10.1077
########## Cluster Size:	1
##########    Grid Score:          -18.945482
##########      Grid_vdw:          -18.468906
##########       Grid_es:           -0.476576
##########    Int_energy:            2.043379

@<TRIPOS>MOLECULE
ligand
 24 24 1 0 0
SMALL
No Charge or Current Charge


@<TRIPOS>ATOM
      1 H1          9.6044    9.9340   24.0469 H       1  lig         0.1313
      2 H2         12.4183    9.3924   20.8806 H       1  lig         0.1473
      3 H3          7.8353    9.1536   22.5597 H       1  lig         0.1394
      4 H4         10.6270    8.6528   19.3571 H       1  lig         0.1574
      5 H5         12.0273    9.7775   24.4621 H       1  lig         0.1170
      6 H6         13.1808    9.7739   23.1672 H       1  lig         0.0678
      7 H7         12.1775   12.2203   22.6630 H       1  lig         0.0912
      8 H8         14.4615   11.6485   23.3009 H       1  lig         0.4249
      9 H9         13.9763   12.9911   24.1586 H       1  lig         0.4256
     10 H10        14.0018   11.4960   24.9024 H       1  lig         0.4835
     11 H11         7.3299    8.3287   20.7552 H       1  lig         0.4236
     12 C1          9.8414    9.6620   23.0202 C.ar    1  lig        -0.1098
     13 C2         11.3926    9.3463   21.2435 C.ar    1  lig        -0.0948
     14 C3          8.8522    9.2194   22.1858 C.ar    1  lig        -0.2079
     15 C4         10.3948    8.9360   20.3801 C.ar    1  lig        -0.1468
     16 C5         11.1167    9.7335   22.5498 C.ar    1  lig        -0.1510
     17 C6          9.0984    8.8904   20.8792 C.ar    1  lig         0.1263
     18 C7         11.4073   12.2511   24.6294 C.2     1  lig         0.9365
     19 C8         12.2243   10.2007   23.4750 C.3     1  lig        -0.0459
     20 C9         12.3847   11.7154   23.6084 C.3     1  lig        -0.0743
     21 N1         13.7696   11.9834   23.9945 N.4     1  lig        -0.8330
     22 O1         10.7202   13.1914   24.2366 O.co2   1  lig        -0.7110
     23 O2         11.3140   11.8012   25.8074 O.co2   1  lig        -0.8016
     24 O3          8.1293    8.4707   20.1678 O.3     1  lig        -0.4958
@<TRIPOS>BOND
     1    20    21    1
     2     8    21    1
     3     9    21    1
     4    10    21    1
     5    18    20    1
     6    19    20    1
     7     7    20    1
     8    18    23    1
     9    18    22    1
    10    16    19    1
    11     5    19    1
    12     6    19    1
    13    12    16   ar
    14    13    16   ar
    15    12    14   ar
    16     1    12    1
    17    13    15   ar
    18     2    13    1
    19    14    17   ar
    20     3    14    1
    21    15    17   ar
    22     4    15    1
    23    17    24    1
    24    11    24    1
@<TRIPOS>SUBSTRUCTURE
     1 lig         1 TEMP              0 ****  ****    0 ROOT


########## Name:		ligand
########## HA_RMSDs:		13.2057
########## HA_RMSDh:		13.1272
########## HA_RMSDm:		10.7877
########## Cluster Size:	5
##########    Grid Score:          -18.936441
##########      Grid_vdw:          -17.268650
##########       Grid_es:           -1.667791
##########    Int_energy:            1.779635

@<TRIPOS>MOLECULE
ligand
 24 24 1 0 0
SMALL
No Charge or Current Charge


@<TRIPOS>ATOM
      1 H1          8.0509    9.7497   23.0746 H       1  lig         0.1313
      2 H2         11.5281   12.1671   23.6244 H       1  lig         0.1473
      3 H3          9.1138    8.7262   21.1322 H       1  lig         0.1394
      4 H4         12.5864   11.1741   21.6317 H       1  lig         0.1574
      5 H5          9.4521   12.6823   24.7658 H       1  lig         0.1170
      6 H6          7.9916   11.7810   24.5172 H       1  lig         0.0678
      7 H7         10.3504   10.7572   26.1808 H       1  lig         0.0912
      8 H8          8.9600    9.0390   25.1490 H       1  lig         0.4249
      9 H9          8.6549    9.0762   26.7858 H       1  lig         0.4256
     10 H10         7.5747    9.7802   25.7244 H       1  lig         0.4835
     11 H11        12.1974    9.7961   19.9331 H       1  lig         0.4236
     12 C1          9.0424   10.0753   22.7662 C.ar    1  lig        -0.1098
     13 C2         10.9928   11.4072   23.0571 C.ar    1  lig        -0.0948
     14 C3          9.6426    9.4995   21.6804 C.ar    1  lig        -0.2079
     15 C4         11.5921   10.8609   21.9383 C.ar    1  lig        -0.1468
     16 C5          9.7135   11.0377   23.4563 C.ar    1  lig        -0.1510
     17 C6         10.8780    9.8944   21.2399 C.ar    1  lig         0.1263
     18 C7          8.7648   11.7645   27.1464 C.2     1  lig         0.9365
     19 C8          9.0655   11.6651   24.6758 C.3     1  lig        -0.0459
     20 C9          9.2883   10.9316   25.9988 C.3     1  lig        -0.0743
     21 N1          8.6049    9.6416   25.9124 N.4     1  lig        -0.8330
     22 O1          7.5872   11.5596   27.4327 O.co2   1  lig        -0.7110
     23 O2          9.4593   12.6300   27.7526 O.co2   1  lig        -0.8016
     24 O3         11.3792    9.3004   20.2313 O.3     1  lig        -0.4958
@<TRIPOS>BOND
     1    20    21    1
     2     8    21    1
     3     9    21    1
     4    10    21    1
     5    18    20    1
     6    19    20    1
     7     7    20    1
     8    18    23    1
     9    18    22    1
    10    16    19    1
    11     5    19    1
    12     6    19    1
    13    12    16   ar
    14    13    16   ar
    15    12    14   ar
    16     1    12    1
    17    13    15   ar
    18     2    13    1
    19    14    17   ar
    20     3    14    1
    21    15    17   ar
    22     4    15    1
    23    17    24    1
    24    11    24    1
@<TRIPOS>SUBSTRUCTURE
     1 lig         1 TEMP              0 ****  ****    0 ROOT


########## Name:		ligand
########## HA_RMSDs:		13.5198
########## HA_RMSDh:		13.4642
########## HA_RMSDm:		11.3935
########## Cluster Size:	2
##########    Grid Score:          -18.867104
##########      Grid_vdw:          -14.859361
##########       Grid_es:           -4.007744
##########    Int_energy:            3.318214

@<TRIPOS>MOLECULE
ligand
 24 24 1 0 0
SMALL
No Charge or Current Charge


@<TRIPOS>ATOM
      1 H1          7.4392    9.1406   23.6744 H       1  lig         0.1313
      2 H2         10.8886   10.9352   21.9085 H       1  lig         0.1473
      3 H3          7.1339    7.8184   21.6474 H       1  lig         0.1394
      4 H4         10.5551    9.6404   19.8374 H       1  lig         0.1574
      5 H5          9.7840   11.9165   23.8785 H       1  lig         0.1170
      6 H6          8.4137   11.1745   24.6394 H       1  lig         0.0678
      7 H7         10.4058   10.9751   26.0908 H       1  lig         0.0912
      8 H8         12.0424   11.0013   24.2823 H       1  lig         0.4249
      9 H9         12.2966    9.6537   25.2273 H       1  lig         0.4256
     10 H10        11.5210    9.5011   23.7562 H       1  lig         0.4835
     11 H11         9.0139    8.3353   18.8015 H       1  lig         0.4236
     12 C1          8.1258    9.2642   22.8393 C.ar    1  lig        -0.1098
     13 C2         10.0483   10.2461   21.8379 C.ar    1  lig        -0.0948
     14 C3          7.9597    8.5205   21.7036 C.ar    1  lig        -0.2079
     15 C4          9.8666    9.5292   20.6707 C.ar    1  lig        -0.1468
     16 C5          9.1687   10.1363   22.9088 C.ar    1  lig        -0.1510
     17 C6          8.7831    8.6603   20.6179 C.ar    1  lig         0.1263
     18 C7          9.7026    9.0193   25.7150 C.2     1  lig         0.9365
     19 C8          9.3747   10.9481   24.1734 C.3     1  lig        -0.0459
     20 C9         10.2922   10.3216   25.2239 C.3     1  lig        -0.0743
     21 N1         11.6030   10.1218   24.6069 N.4     1  lig        -0.8330
     22 O1         10.1458    8.0154   25.1616 O.co2   1  lig        -0.7110
     23 O2          8.8018    8.9522   26.5998 O.co2   1  lig        -0.8016
     24 O3          8.5757    7.9213   19.6019 O.3     1  lig        -0.4958
@<TRIPOS>BOND
     1    20    21    1
     2     8    21    1
     3     9    21    1
     4    10    21    1
     5    18    20    1
     6    19    20    1
     7     7    20    1
     8    18    23    1
     9    18    22    1
    10    16    19    1
    11     5    19    1
    12     6    19    1
    13    12    16   ar
    14    13    16   ar
    15    12    14   ar
    16     1    12    1
    17    13    15   ar
    18     2    13    1
    19    14    17   ar
    20     3    14    1
    21    15    17   ar
    22     4    15    1
    23    17    24    1
    24    11    24    1
@<TRIPOS>SUBSTRUCTURE
     1 lig         1 TEMP              0 ****  ****    0 ROOT


########## Name:		ligand
########## HA_RMSDs:		9.3300
########## HA_RMSDh:		9.2906
########## HA_RMSDm:		7.5733
########## Cluster Size:	4
##########    Grid Score:          -18.858261
##########      Grid_vdw:          -14.559863
##########       Grid_es:           -4.298398
##########    Int_energy:            1.602566

@<TRIPOS>MOLECULE
ligand
 24 24 1 0 0
SMALL
No Charge or Current Charge


@<TRIPOS>ATOM
      1 H1         14.7929   13.2883   27.2112 H       1  lig         0.1313
      2 H2         16.5001   16.3245   24.7406 H       1  lig         0.1473
      3 H3         14.4334   14.9582   28.9527 H       1  lig         0.1394
      4 H4         16.1874   18.0057   26.5162 H       1  lig         0.1574
      5 H5         14.9567   13.1320   24.6521 H       1  lig         0.1170
      6 H6         16.0820   14.1618   23.8272 H       1  lig         0.0678
      7 H7         16.9427   12.2197   26.0302 H       1  lig         0.0912
      8 H8         18.4010   14.1264   25.5968 H       1  lig         0.4249
      9 H9         19.1262   12.7434   25.0180 H       1  lig         0.4256
     10 H10        18.3839   13.7974   23.9564 H       1  lig         0.4835
     11 H11        14.4144   16.9621   29.4508 H       1  lig         0.4236
     12 C1         15.1084   14.3169   27.0479 C.ar    1  lig        -0.1098
     13 C2         16.0500   16.0263   25.6863 C.ar    1  lig        -0.0948
     14 C3         14.9034   15.2561   28.0208 C.ar    1  lig        -0.2079
     15 C4         15.8843   16.9747   26.6774 C.ar    1  lig        -0.1468
     16 C5         15.6893   14.6974   25.8772 C.ar    1  lig        -0.1510
     17 C6         15.3067   16.5565   27.8704 C.ar    1  lig         0.1263
     18 C7         16.9113   11.5170   24.0387 C.2     1  lig         0.9365
     19 C8         15.8991   13.6676   24.7834 C.3     1  lig        -0.0459
     20 C9         17.0155   12.6526   25.0308 C.3     1  lig        -0.0743
     21 N1         18.2914   13.3574   24.9122 N.4     1  lig        -0.8330
     22 O1         17.4675   10.4784   24.3887 O.co2   1  lig        -0.7110
     23 O2         16.3305   11.6201   22.9203 O.co2   1  lig        -0.8016
     24 O3         15.0669   17.3774   28.8138 O.3     1  lig        -0.4958
@<TRIPOS>BOND
     1    20    21    1
     2     8    21    1
     3     9    21    1
     4    10    21    1
     5    18    20    1
     6    19    20    1
     7     7    20    1
     8    18    23    1
     9    18    22    1
    10    16    19    1
    11     5    19    1
    12     6    19    1
    13    12    16   ar
    14    13    16   ar
    15    12    14   ar
    16     1    12    1
    17    13    15   ar
    18     2    13    1
    19    14    17   ar
    20     3    14    1
    21    15    17   ar
    22     4    15    1
    23    17    24    1
    24    11    24    1
@<TRIPOS>SUBSTRUCTURE
     1 lig         1 TEMP              0 ****  ****    0 ROOT


########## Name:		ligand
########## HA_RMSDs:		11.0410
########## HA_RMSDh:		11.0410
########## HA_RMSDm:		9.3543
########## Cluster Size:	3
##########    Grid Score:          -18.780819
##########      Grid_vdw:          -13.832880
##########       Grid_es:           -4.947939
##########    Int_energy:            3.331429

@<TRIPOS>MOLECULE
ligand
 24 24 1 0 0
SMALL
No Charge or Current Charge


@<TRIPOS>ATOM
      1 H1         13.6355   10.1895   25.1941 H       1  lig         0.1313
      2 H2         11.4064   11.7881   21.9211 H       1  lig         0.1473
      3 H3         11.8264   10.8385   26.6962 H       1  lig         0.1394
      4 H4          9.5982   12.4934   23.4409 H       1  lig         0.1574
      5 H5         13.9426   11.3863   21.8476 H       1  lig         0.1170
      6 H6         14.6904   10.4191   23.0775 H       1  lig         0.0678
      7 H7         14.4008    8.9480   21.2017 H       1  lig         0.0912
      8 H8         12.7966   10.3727   20.0412 H       1  lig         0.4249
      9 H9         12.2032    8.8176   20.0970 H       1  lig         0.4256
     10 H10        11.6051    9.9719   21.1454 H       1  lig         0.4835
     11 H11         8.8358   12.0427   25.5515 H       1  lig         0.4236
     12 C1         12.7593   10.6987   24.7975 C.ar    1  lig        -0.1098
     13 C2         11.4967   11.5898   22.9880 C.ar    1  lig        -0.0948
     14 C3         11.7414   11.0592   25.6369 C.ar    1  lig        -0.2079
     15 C4         10.4804   11.9942   23.8324 C.ar    1  lig        -0.1468
     16 C5         12.6438   10.9688   23.4684 C.ar    1  lig        -0.1510
     17 C6         10.6315   11.7242   25.1874 C.ar    1  lig         0.1263
     18 C7         13.0239    8.1722   22.6028 C.2     1  lig         0.9365
     19 C8         13.7572   10.5514   22.5265 C.3     1  lig        -0.0459
     20 C9         13.4932    9.2913   21.7017 C.3     1  lig        -0.0743
     21 N1         12.4922    9.6246   20.6889 N.4     1  lig        -0.8330
     22 O1         11.8149    7.9545   22.5620 O.co2   1  lig        -0.7110
     23 O2         13.7944    7.5240   23.3676 O.co2   1  lig        -0.8016
     24 O3          9.7178   12.0126   26.0261 O.3     1  lig        -0.4958
@<TRIPOS>BOND
     1    20    21    1
     2     8    21    1
     3     9    21    1
     4    10    21    1
     5    18    20    1
     6    19    20    1
     7     7    20    1
     8    18    23    1
     9    18    22    1
    10    16    19    1
    11     5    19    1
    12     6    19    1
    13    12    16   ar
    14    13    16   ar
    15    12    14   ar
    16     1    12    1
    17    13    15   ar
    18     2    13    1
    19    14    17   ar
    20     3    14    1
    21    15    17   ar
    22     4    15    1
    23    17    24    1
    24    11    24    1
@<TRIPOS>SUBSTRUCTURE
     1 lig         1 TEMP              0 ****  ****    0 ROOT


########## Name:		ligand
########## HA_RMSDs:		12.7624
########## HA_RMSDh:		12.7125
########## HA_RMSDm:		10.3306
########## Cluster Size:	2
##########    Grid Score:          -18.510611
##########      Grid_vdw:          -15.988961
##########       Grid_es:           -2.521649
##########    Int_energy:            4.547823

@<TRIPOS>MOLECULE
ligand
 24 24 1 0 0
SMALL
No Charge or Current Charge


@<TRIPOS>ATOM
      1 H1         11.0976   12.4480   25.2428 H       1  lig         0.1313
      2 H2          8.9514    9.9840   22.4933 H       1  lig         0.1473
      3 H3         13.0334   12.3523   23.7616 H       1  lig         0.1394
      4 H4         10.9210    9.8403   21.0179 H       1  lig         0.1574
      5 H5          8.9193   11.9998   25.6652 H       1  lig         0.1170
      6 H6          7.8452   11.6880   24.3398 H       1  lig         0.0678
      7 H7          7.7150   10.1287   26.4478 H       1  lig         0.0912
      8 H8         10.1160    9.7023   26.5086 H       1  lig         0.4249
      9 H9          9.3138    8.2651   26.2547 H       1  lig         0.4256
     10 H10        10.0608    9.0355   24.9751 H       1  lig         0.4835
     11 H11        12.9004   11.3560   20.6682 H       1  lig         0.4236
     12 C1         11.0471   11.8684   24.3232 C.ar    1  lig        -0.1098
     13 C2          9.8684   10.5001   22.7736 C.ar    1  lig        -0.0948
     14 C3         12.1294   11.8172   23.4886 C.ar    1  lig        -0.2079
     15 C4         10.9688   10.4087   21.9428 C.ar    1  lig        -0.1468
     16 C5          9.9124   11.2037   23.9717 C.ar    1  lig        -0.1510
     17 C6         12.1210   11.0803   22.3340 C.ar    1  lig         0.1263
     18 C7          7.3766    9.1835   24.5896 C.2     1  lig         0.9365
     19 C8          8.6992   11.2742   24.8795 C.3     1  lig        -0.0459
     20 C9          8.2760    9.9555   25.5276 C.3     1  lig        -0.0743
     21 N1          9.4911    9.2074   25.8478 N.4     1  lig        -0.8330
     22 O1          7.4775    7.9615   24.6731 O.co2   1  lig        -0.7110
     23 O2          6.6008    9.7349   23.7571 O.co2   1  lig        -0.8016
     24 O3         13.1612   11.0942   21.5996 O.3     1  lig        -0.4958
@<TRIPOS>BOND
     1    20    21    1
     2     8    21    1
     3     9    21    1
     4    10    21    1
     5    18    20    1
     6    19    20    1
     7     7    20    1
     8    18    23    1
     9    18    22    1
    10    16    19    1
    11     5    19    1
    12     6    19    1
    13    12    16   ar
    14    13    16   ar
    15    12    14   ar
    16     1    12    1
    17    13    15   ar
    18     2    13    1
    19    14    17   ar
    20     3    14    1
    21    15    17   ar
    22     4    15    1
    23    17    24    1
    24    11    24    1
@<TRIPOS>SUBSTRUCTURE
     1 lig         1 TEMP              0 ****  ****    0 ROOT


########## Name:		ligand
########## HA_RMSDs:		16.2571
########## HA_RMSDh:		16.1659
########## HA_RMSDm:		12.9876
########## Cluster Size:	1
##########    Grid Score:          -18.503162
##########      Grid_vdw:          -18.147011
##########       Grid_es:           -0.356152
##########    Int_energy:            2.383366

@<TRIPOS>MOLECULE
ligand
 24 24 1 0 0
SMALL
No Charge or Current Charge


@<TRIPOS>ATOM
      1 H1         23.3148    3.9310   11.3151 H       1  lig         0.1313
      2 H2         27.0259    5.3827   12.8505 H       1  lig         0.1473
      3 H3         24.5260    2.1474   10.1741 H       1  lig         0.1394
      4 H4         28.2608    3.6139   11.6575 H       1  lig         0.1574
      5 H5         23.2859    5.6280   12.8355 H       1  lig         0.1170
      6 H6         24.6141    5.8864   13.9201 H       1  lig         0.0678
      7 H7         24.9004    7.2672   11.2757 H       1  lig         0.0912
      8 H8         26.4445    7.5101   13.1483 H       1  lig         0.4249
      9 H9         25.6879    8.9681   12.8737 H       1  lig         0.4256
     10 H10        25.1954    8.0044   14.1457 H       1  lig         0.4835
     11 H11        28.0018    1.9059   10.2893 H       1  lig         0.4236
     12 C1         24.3988    3.8767   11.3940 C.ar    1  lig        -0.1098
     13 C2         26.4776    4.6639   12.2434 C.ar    1  lig        -0.0948
     14 C3         25.0798    2.8747   10.7592 C.ar    1  lig        -0.2079
     15 C4         27.1795    3.6798   11.5739 C.ar    1  lig        -0.1468
     16 C5         25.0967    4.7807   12.1346 C.ar    1  lig        -0.1510
     17 C6         26.4454    2.7811   10.8088 C.ar    1  lig         0.1263
     18 C7         23.2104    8.0232   12.2922 C.2     1  lig         0.9365
     19 C8         24.3476    5.8815   12.8614 C.3     1  lig        -0.0459
     20 C9         24.5337    7.2929   12.3036 C.3     1  lig        -0.0743
     21 N1         25.5196    7.9754   13.1408 N.4     1  lig        -0.8330
     22 O1         23.0972    8.8646   11.4035 O.co2   1  lig        -0.7110
     23 O2         22.2954    7.8203   13.1411 O.co2   1  lig        -0.8016
     24 O3         27.0078    1.8110   10.2055 O.3     1  lig        -0.4958
@<TRIPOS>BOND
     1    20    21    1
     2     8    21    1
     3     9    21    1
     4    10    21    1
     5    18    20    1
     6    19    20    1
     7     7    20    1
     8    18    23    1
     9    18    22    1
    10    16    19    1
    11     5    19    1
    12     6    19    1
    13    12    16   ar
    14    13    16   ar
    15    12    14   ar
    16     1    12    1
    17    13    15   ar
    18     2    13    1
    19    14    17   ar
    20     3    14    1
    21    15    17   ar
    22     4    15    1
    23    17    24    1
    24    11    24    1
@<TRIPOS>SUBSTRUCTURE
     1 lig         1 TEMP              0 ****  ****    0 ROOT


########## Name:		ligand
########## HA_RMSDs:		14.4633
########## HA_RMSDh:		14.4029
########## HA_RMSDm:		11.5953
########## Cluster Size:	1
##########    Grid Score:          -18.493181
##########      Grid_vdw:          -15.275562
##########       Grid_es:           -3.217619
##########    Int_energy:            2.728379

@<TRIPOS>MOLECULE
ligand
 24 24 1 0 0
SMALL
No Charge or Current Charge


@<TRIPOS>ATOM
      1 H1         22.5597    5.6266   16.1080 H       1  lig         0.1313
      2 H2         25.6800    5.4675   13.1968 H       1  lig         0.1473
      3 H3         23.9870    4.3906   17.6525 H       1  lig         0.1394
      4 H4         27.1073    4.1729   14.7342 H       1  lig         0.1574
      5 H5         22.5978    5.6660   12.9820 H       1  lig         0.1170
      6 H6         22.3802    6.9382   14.1402 H       1  lig         0.0678
      7 H7         24.6386    6.8481   12.0734 H       1  lig         0.0912
      8 H8         25.2231    7.9670   14.1606 H       1  lig         0.4249
      9 H9         25.0224    9.1110   12.9670 H       1  lig         0.4256
     10 H10        23.8169    8.8715   14.0977 H       1  lig         0.4835
     11 H11        26.0166    3.8496   18.0786 H       1  lig         0.4236
     12 C1         23.5515    5.3094   15.7921 C.ar    1  lig        -0.1098
     13 C2         25.3065    5.2142   14.1878 C.ar    1  lig        -0.0948
     14 C3         24.3556    4.6205   16.6579 C.ar    1  lig        -0.2079
     15 C4         26.1119    4.4832   15.0401 C.ar    1  lig        -0.1468
     16 C5         24.0220    5.6039   14.5492 C.ar    1  lig        -0.1510
     17 C6         25.6007    4.1787   16.2962 C.ar    1  lig         0.1263
     18 C7         22.9012    7.9889   11.6980 C.2     1  lig         0.9365
     19 C8         23.1463    6.3880   13.5905 C.3     1  lig        -0.0459
     20 C9         23.8782    7.3609   12.6653 C.3     1  lig        -0.0743
     21 N1         24.5297    8.3666   13.5037 N.4     1  lig        -0.8330
     22 O1         23.1355    9.1639   11.4238 O.co2   1  lig        -0.7110
     23 O2         21.8997    7.3790   11.2250 O.co2   1  lig        -0.8016
     24 O3         26.2976    3.5577   17.1621 O.3     1  lig        -0.4958
@<TRIPOS>BOND
     1    20    21    1
     2     8    21    1
     3     9    21    1
     4    10    21    1
     5    18    20    1
     6    19    20    1
     7     7    20    1
     8    18    23    1
     9    18    22    1
    10    16    19    1
    11     5    19    1
    12     6    19    1
    13    12    16   ar
    14    13    16   ar
    15    12    14   ar
    16     1    12    1
    17    13    15   ar
    18     2    13    1
    19    14    17   ar
    20     3    14    1
    21    15    17   ar
    22     4    15    1
    23    17    24    1
    24    11    24    1
@<TRIPOS>SUBSTRUCTURE
     1 lig         1 TEMP              0 ****  ****    0 ROOT


########## Name:		ligand
########## HA_RMSDs:		15.2061
########## HA_RMSDh:		15.2061
########## HA_RMSDm:		13.3173
########## Cluster Size:	1
##########    Grid Score:          -18.470821
##########      Grid_vdw:          -15.026646
##########       Grid_es:           -3.444176
##########    Int_energy:            3.990963

@<TRIPOS>MOLECULE
ligand
 24 24 1 0 0
SMALL
No Charge or Current Charge


@<TRIPOS>ATOM
      1 H1          9.2036    7.6039   23.9335 H       1  lig         0.1313
      2 H2          6.7402    6.7741   20.5453 H       1  lig         0.1473
      3 H3         10.5638    9.0726   22.5396 H       1  lig         0.1394
      4 H4          8.1418    8.2157   19.1190 H       1  lig         0.1574
      5 H5          6.6572    5.3809   22.5491 H       1  lig         0.1170
      6 H6          7.6540    5.6763   23.9371 H       1  lig         0.0678
      7 H7          5.2678    6.1370   24.4494 H       1  lig         0.0912
      8 H8          4.6431    6.7935   22.1847 H       1  lig         0.4249
      9 H9          4.2168    8.0084   23.2411 H       1  lig         0.4256
     10 H10         5.5855    8.1713   22.2982 H       1  lig         0.4835
     11 H11         9.9684    9.4576   19.1287 H       1  lig         0.4236
     12 C1          8.9631    7.7244   22.8791 C.ar    1  lig        -0.1098
     13 C2          7.6003    7.2817   20.9792 C.ar    1  lig        -0.0948
     14 C3          9.7213    8.5511   22.0965 C.ar    1  lig        -0.2079
     15 C4          8.3831    8.0830   20.1701 C.ar    1  lig        -0.1468
     16 C5          7.9017    7.0802   22.3212 C.ar    1  lig        -0.1510
     17 C6          9.4724    8.7139   20.7594 C.ar    1  lig         0.1263
     18 C7          6.3772    7.8819   24.8799 C.2     1  lig         0.9365
     19 C8          7.0411    6.1798   23.1869 C.3     1  lig        -0.0459
     20 C9          5.8662    6.8593   23.8910 C.3     1  lig        -0.0743
     21 N1          5.0275    7.4747   22.8631 N.4     1  lig        -0.8330
     22 O1          6.5959    8.9926   24.4012 O.co2   1  lig        -0.7110
     23 O2          6.5985    7.6235   26.0977 O.co2   1  lig        -0.8016
     24 O3         10.2118    9.5131   20.0992 O.3     1  lig        -0.4958
@<TRIPOS>BOND
     1    20    21    1
     2     8    21    1
     3     9    21    1
     4    10    21    1
     5    18    20    1
     6    19    20    1
     7     7    20    1
     8    18    23    1
     9    18    22    1
    10    16    19    1
    11     5    19    1
    12     6    19    1
    13    12    16   ar
    14    13    16   ar
    15    12    14   ar
    16     1    12    1
    17    13    15   ar
    18     2    13    1
    19    14    17   ar
    20     3    14    1
    21    15    17   ar
    22     4    15    1
    23    17    24    1
    24    11    24    1
@<TRIPOS>SUBSTRUCTURE
     1 lig         1 TEMP              0 ****  ****    0 ROOT


########## Name:		ligand
########## HA_RMSDs:		13.8523
########## HA_RMSDh:		13.8128
########## HA_RMSDm:		11.8205
########## Cluster Size:	2
##########    Grid Score:          -18.420835
##########      Grid_vdw:          -13.676341
##########       Grid_es:           -4.744495
##########    Int_energy:            1.190402

@<TRIPOS>MOLECULE
ligand
 24 24 1 0 0
SMALL
No Charge or Current Charge


@<TRIPOS>ATOM
      1 H1          8.1264    7.8988   24.5232 H       1  lig         0.1313
      2 H2         11.7461    9.3109   22.7510 H       1  lig         0.1473
      3 H3          9.4066    7.1630   26.4649 H       1  lig         0.1394
      4 H4         13.0524    8.5224   24.6871 H       1  lig         0.1574
      5 H5          8.0102    9.0905   22.5813 H       1  lig         0.1170
      6 H6          9.2909   10.1529   22.0930 H       1  lig         0.0678
      7 H7          9.7746    7.3570   21.2181 H       1  lig         0.0912
      8 H8         10.9974    9.3321   20.4739 H       1  lig         0.4249
      9 H9         10.2091    8.6568   19.1716 H       1  lig         0.4256
     10 H10         9.5840   10.0218   19.9031 H       1  lig         0.4835
     11 H11        11.2324    6.8956   27.3390 H       1  lig         0.4236
     12 C1          9.2057    8.0365   24.5435 C.ar    1  lig        -0.1098
     13 C2         11.2341    8.8218   23.5782 C.ar    1  lig        -0.0948
     14 C3          9.9251    7.6293   25.6331 C.ar    1  lig        -0.2079
     15 C4         11.9759    8.3782   24.6563 C.ar    1  lig        -0.1468
     16 C5          9.8592    8.6295   23.5071 C.ar    1  lig        -0.1510
     17 C6         11.2875    7.7584   25.6926 C.ar    1  lig         0.1263
     18 C7          7.9083    7.9497   20.4268 C.2     1  lig         0.9365
     19 C8          9.0664    9.1057   22.3047 C.3     1  lig        -0.0459
     20 C9          9.2541    8.2961   21.0213 C.3     1  lig        -0.0743
     21 N1         10.0593    9.0998   20.1024 N.4     1  lig        -0.8330
     22 O1          7.3710    8.8653   19.8074 O.co2   1  lig        -0.7110
     23 O2          7.3509    6.8242   20.5730 O.co2   1  lig        -0.8016
     24 O3         11.8866    7.3707   26.7471 O.3     1  lig        -0.4958
@<TRIPOS>BOND
     1    20    21    1
     2     8    21    1
     3     9    21    1
     4    10    21    1
     5    18    20    1
     6    19    20    1
     7     7    20    1
     8    18    23    1
     9    18    22    1
    10    16    19    1
    11     5    19    1
    12     6    19    1
    13    12    16   ar
    14    13    16   ar
    15    12    14   ar
    16     1    12    1
    17    13    15   ar
    18     2    13    1
    19    14    17   ar
    20     3    14    1
    21    15    17   ar
    22     4    15    1
    23    17    24    1
    24    11    24    1
@<TRIPOS>SUBSTRUCTURE
     1 lig         1 TEMP              0 ****  ****    0 ROOT


########## Name:		ligand
########## HA_RMSDs:		10.1690
########## HA_RMSDh:		10.0683
########## HA_RMSDm:		7.9529
########## Cluster Size:	1
##########    Grid Score:          -18.362146
##########      Grid_vdw:          -16.636414
##########       Grid_es:           -1.725732
##########    Int_energy:            1.450378

@<TRIPOS>MOLECULE
ligand
 24 24 1 0 0
SMALL
No Charge or Current Charge


@<TRIPOS>ATOM
      1 H1         14.3260   11.8208   21.5746 H       1  lig         0.1313
      2 H2         14.1965   10.1278   25.4930 H       1  lig         0.1473
      3 H3         16.5044   12.7836   22.1017 H       1  lig         0.1394
      4 H4         16.3734   11.1417   26.0498 H       1  lig         0.1574
      5 H5         12.9457    9.4954   22.4837 H       1  lig         0.1170
      6 H6         12.3392    9.8512   24.0689 H       1  lig         0.0678
      7 H7         12.1233   11.7627   21.6855 H       1  lig         0.0912
      8 H8         12.2347   12.8413   23.8705 H       1  lig         0.4249
      9 H9         10.6789   12.9524   23.2869 H       1  lig         0.4256
     10 H10        11.0459   11.8227   24.4608 H       1  lig         0.4835
     11 H11        17.7494   13.4648   23.8333 H       1  lig         0.4236
     12 C1         14.7603   11.6689   22.5607 C.ar    1  lig        -0.1098
     13 C2         14.7127   10.7298   24.7467 C.ar    1  lig        -0.0948
     14 C3         15.9838   12.2035   22.8571 C.ar    1  lig        -0.2079
     15 C4         15.9297   11.2986   25.0704 C.ar    1  lig        -0.1468
     16 C5         14.1157   10.9341   23.5080 C.ar    1  lig        -0.1510
     17 C6         16.5580   12.0605   24.0924 C.ar    1  lig         0.1263
     18 C7         10.5048   10.4903   22.1570 C.2     1  lig         0.9365
     19 C8         12.7691   10.3175   23.1803 C.3     1  lig        -0.0459
     20 C9         11.7331   11.2655   22.5754 C.3     1  lig        -0.0743
     21 N1         11.4155   12.2777   23.5821 N.4     1  lig        -0.8330
     22 O1          9.6028   10.4703   22.9915 O.co2   1  lig        -0.7110
     23 O2         10.4092    9.8786   21.0545 O.co2   1  lig        -0.8016
     24 O3         17.7069   12.5732   24.2887 O.3     1  lig        -0.4958
@<TRIPOS>BOND
     1    20    21    1
     2     8    21    1
     3     9    21    1
     4    10    21    1
     5    18    20    1
     6    19    20    1
     7     7    20    1
     8    18    23    1
     9    18    22    1
    10    16    19    1
    11     5    19    1
    12     6    19    1
    13    12    16   ar
    14    13    16   ar
    15    12    14   ar
    16     1    12    1
    17    13    15   ar
    18     2    13    1
    19    14    17   ar
    20     3    14    1
    21    15    17   ar
    22     4    15    1
    23    17    24    1
    24    11    24    1
@<TRIPOS>SUBSTRUCTURE
     1 lig         1 TEMP              0 ****  ****    0 ROOT


########## Name:		ligand
########## HA_RMSDs:		13.4784
########## HA_RMSDh:		13.4661
########## HA_RMSDm:		11.4670
########## Cluster Size:	1
##########    Grid Score:          -18.346100
##########      Grid_vdw:          -15.107452
##########       Grid_es:           -3.238648
##########    Int_energy:            1.055485

@<TRIPOS>MOLECULE
ligand
 24 24 1 0 0
SMALL
No Charge or Current Charge


@<TRIPOS>ATOM
      1 H1         10.0115    7.9884   24.4306 H       1  lig         0.1313
      2 H2          8.3461    7.9371   20.4986 H       1  lig         0.1473
      3 H3          7.7553    7.8592   25.3488 H       1  lig         0.1394
      4 H4          6.0613    7.8594   21.4207 H       1  lig         0.1574
      5 H5         11.3336    7.3419   22.3837 H       1  lig         0.1170
      6 H6         10.7209    7.6961   20.8005 H       1  lig         0.0678
      7 H7         11.1584    9.9578   22.7957 H       1  lig         0.0912
      8 H8          9.8705   10.3510   20.7618 H       1  lig         0.4249
      9 H9         11.3297   11.1449   20.6445 H       1  lig         0.4256
     10 H10        11.1005    9.7055   19.8292 H       1  lig         0.4835
     11 H11         4.9360    7.7089   23.3043 H       1  lig         0.4236
     12 C1          9.1549    7.9666   23.7599 C.ar    1  lig        -0.1098
     13 C2          8.2050    7.9301   21.5783 C.ar    1  lig        -0.0948
     14 C3          7.8891    7.8891   24.2721 C.ar    1  lig        -0.2079
     15 C4          6.9202    7.8922   22.0854 C.ar    1  lig        -0.1468
     16 C5          9.3180    7.9939   22.4088 C.ar    1  lig        -0.1510
     17 C6          6.7801    7.8849   23.4682 C.ar    1  lig         0.1263
     18 C7         12.8972    9.2645   21.8175 C.2     1  lig         0.9365
     19 C8         10.7193    8.0559   21.8313 C.3     1  lig        -0.0459
     20 C9         11.3954    9.4267   21.8719 C.3     1  lig        -0.0743
     21 N1         10.8949   10.2030   20.7381 N.4     1  lig        -0.8330
     22 O1         13.3455    9.0173   20.7002 O.co2   1  lig        -0.7110
     23 O2         13.6435    9.3414   22.8353 O.co2   1  lig        -0.8016
     24 O3          5.6348    7.7946   24.0174 O.3     1  lig        -0.4958
@<TRIPOS>BOND
     1    20    21    1
     2     8    21    1
     3     9    21    1
     4    10    21    1
     5    18    20    1
     6    19    20    1
     7     7    20    1
     8    18    23    1
     9    18    22    1
    10    16    19    1
    11     5    19    1
    12     6    19    1
    13    12    16   ar
    14    13    16   ar
    15    12    14   ar
    16     1    12    1
    17    13    15   ar
    18     2    13    1
    19    14    17   ar
    20     3    14    1
    21    15    17   ar
    22     4    15    1
    23    17    24    1
    24    11    24    1
@<TRIPOS>SUBSTRUCTURE
     1 lig         1 TEMP              0 ****  ****    0 ROOT


########## Name:		ligand
########## HA_RMSDs:		14.0483
########## HA_RMSDh:		14.0388
########## HA_RMSDm:		12.8993
########## Cluster Size:	1
##########    Grid Score:          -18.342968
##########      Grid_vdw:          -16.458420
##########       Grid_es:           -1.884549
##########    Int_energy:            1.627915

@<TRIPOS>MOLECULE
ligand
 24 24 1 0 0
SMALL
No Charge or Current Charge


@<TRIPOS>ATOM
      1 H1          8.0174    7.7732   25.3649 H       1  lig         0.1313
      2 H2          9.0083   11.0571   22.8210 H       1  lig         0.1473
      3 H3          7.8470    9.3240   27.2401 H       1  lig         0.1394
      4 H4          8.8891   12.6217   24.7222 H       1  lig         0.1574
      5 H5          9.5549    8.5894   22.2663 H       1  lig         0.1170
      6 H6          8.7629    7.3337   23.1627 H       1  lig         0.0678
      7 H7          7.1621    9.4208   21.6077 H       1  lig         0.0912
      8 H8          6.0286    8.1348   23.3431 H       1  lig         0.4249
      9 H9          5.4939    7.6250   21.8505 H       1  lig         0.4256
     10 H10         6.6040    6.7046   22.6929 H       1  lig         0.4835
     11 H11         8.8424   11.4530   27.8741 H       1  lig         0.4236
     12 C1          8.2165    8.8319   25.2112 C.ar    1  lig        -0.1098
     13 C2          8.7605   10.6777   23.8112 C.ar    1  lig        -0.0948
     14 C3          8.1168    9.7042   26.2599 C.ar    1  lig        -0.2079
     15 C4          8.7018   11.5618   24.8715 C.ar    1  lig        -0.1468
     16 C5          8.5456    9.3149   23.9819 C.ar    1  lig        -0.1510
     17 C6          8.3830   11.0405   26.1199 C.ar    1  lig         0.1263
     18 C7          7.8578    7.7483   20.5217 C.2     1  lig         0.9365
     19 C8          8.6354    8.3584   22.8080 C.3     1  lig        -0.0459
     20 C9          7.4613    8.3947   21.8292 C.3     1  lig        -0.0743
     21 N1          6.3381    7.6991   22.4563 N.4     1  lig        -0.8330
     22 O1          7.1981    8.1111   19.5501 O.co2   1  lig        -0.7110
     23 O2          8.7704    6.8787   20.4230 O.co2   1  lig        -0.8016
     24 O3          8.2532   11.7934   27.1385 O.3     1  lig        -0.4958
@<TRIPOS>BOND
     1    20    21    1
     2     8    21    1
     3     9    21    1
     4    10    21    1
     5    18    20    1
     6    19    20    1
     7     7    20    1
     8    18    23    1
     9    18    22    1
    10    16    19    1
    11     5    19    1
    12     6    19    1
    13    12    16   ar
    14    13    16   ar
    15    12    14   ar
    16     1    12    1
    17    13    15   ar
    18     2    13    1
    19    14    17   ar
    20     3    14    1
    21    15    17   ar
    22     4    15    1
    23    17    24    1
    24    11    24    1
@<TRIPOS>SUBSTRUCTURE
     1 lig         1 TEMP              0 ****  ****    0 ROOT


########## Name:		ligand
########## HA_RMSDs:		10.8309
########## HA_RMSDh:		10.8309
########## HA_RMSDm:		9.5858
########## Cluster Size:	1
##########    Grid Score:          -18.319771
##########      Grid_vdw:          -13.930726
##########       Grid_es:           -4.389046
##########    Int_energy:            2.276986

@<TRIPOS>MOLECULE
ligand
 24 24 1 0 0
SMALL
No Charge or Current Charge


@<TRIPOS>ATOM
      1 H1         15.1023   10.3456   24.4258 H       1  lig         0.1313
      2 H2         13.0325    9.3835   20.8164 H       1  lig         0.1473
      3 H3         13.3742   11.9899   24.9360 H       1  lig         0.1394
      4 H4         11.3111   11.0803   21.3005 H       1  lig         0.1574
      5 H5         14.8649    8.1132   21.4591 H       1  lig         0.1170
      6 H6         16.1382    9.2228   21.8527 H       1  lig         0.0678
      7 H7         15.9695    8.4432   24.2976 H       1  lig         0.0912
      8 H8         17.6326    7.6242   22.7122 H       1  lig         0.4249
      9 H9         17.1566    6.3698   23.6989 H       1  lig         0.4256
     10 H10        16.5590    6.4741   22.1429 H       1  lig         0.4835
     11 H11        10.6095   12.4576   22.8782 H       1  lig         0.4236
     12 C1         14.2804   10.5004   23.7296 C.ar    1  lig        -0.1098
     13 C2         13.1067    9.9761   21.7270 C.ar    1  lig        -0.0948
     14 C3         13.3075   11.4182   24.0157 C.ar    1  lig        -0.2079
     15 C4         12.1399   10.9287   21.9865 C.ar    1  lig        -0.1468
     16 C5         14.1873    9.7789   22.5791 C.ar    1  lig        -0.1510
     17 C6         12.2686   11.6654   23.1580 C.ar    1  lig         0.1263
     18 C7         14.5153    6.9752   23.8600 C.2     1  lig         0.9365
     19 C8         15.2489    8.7421   22.2649 C.3     1  lig        -0.0459
     20 C9         15.6720    7.8489   23.4316 C.3     1  lig        -0.0743
     21 N1         16.8155    7.0518   22.9892 N.4     1  lig        -0.8330
     22 O1         14.4391    5.9002   23.2691 O.co2   1  lig        -0.7110
     23 O2         13.6665    7.3209   24.7311 O.co2   1  lig        -0.8016
     24 O3         11.3922   12.5233   23.5005 O.3     1  lig        -0.4958
@<TRIPOS>BOND
     1    20    21    1
     2     8    21    1
     3     9    21    1
     4    10    21    1
     5    18    20    1
     6    19    20    1
     7     7    20    1
     8    18    23    1
     9    18    22    1
    10    16    19    1
    11     5    19    1
    12     6    19    1
    13    12    16   ar
    14    13    16   ar
    15    12    14   ar
    16     1    12    1
    17    13    15   ar
    18     2    13    1
    19    14    17   ar
    20     3    14    1
    21    15    17   ar
    22     4    15    1
    23    17    24    1
    24    11    24    1
@<TRIPOS>SUBSTRUCTURE
     1 lig         1 TEMP              0 ****  ****    0 ROOT


########## Name:		ligand
########## HA_RMSDs:		15.2057
########## HA_RMSDh:		15.1736
########## HA_RMSDm:		13.1783
########## Cluster Size:	1
##########    Grid Score:          -18.319685
##########      Grid_vdw:          -17.512815
##########       Grid_es:           -0.806869
##########    Int_energy:            3.080531

@<TRIPOS>MOLECULE
ligand
 24 24 1 0 0
SMALL
No Charge or Current Charge


@<TRIPOS>ATOM
      1 H1         21.6540    4.7896   12.5046 H       1  lig         0.1313
      2 H2         25.7119    5.7213   13.4547 H       1  lig         0.1473
      3 H3         21.3334    7.0951   11.7751 H       1  lig         0.1394
      4 H4         25.3796    8.0655   12.7683 H       1  lig         0.1574
      5 H5         24.8255    3.6495   14.0732 H       1  lig         0.1170
      6 H6         23.1161    3.3745   14.1721 H       1  lig         0.0678
      7 H7         23.0879    2.6254   11.7652 H       1  lig         0.0912
      8 H8         23.4300    1.0562   13.6011 H       1  lig         0.4249
      9 H9         24.3303    0.5642   12.2892 H       1  lig         0.4256
     10 H10        25.0790    1.3374   13.5662 H       1  lig         0.4835
     11 H11        22.1219    8.9507   11.5004 H       1  lig         0.4236
     12 C1         22.4771    5.4982   12.5732 C.ar    1  lig        -0.1098
     13 C2         24.7364    6.0384   13.0892 C.ar    1  lig        -0.0948
     14 C3         22.3013    6.7902   12.1602 C.ar    1  lig        -0.2079
     15 C4         24.5587    7.3559   12.7123 C.ar    1  lig        -0.1468
     16 C5         23.6955    5.1180   13.0462 C.ar    1  lig        -0.1510
     17 C6         23.2999    7.7232   12.2514 C.ar    1  lig         0.1263
     18 C7         25.1371    3.0082   11.4259 C.2     1  lig         0.9365
     19 C8         23.9065    3.6812   13.4843 C.3     1  lig        -0.0459
     20 C9         24.0033    2.6502   12.3593 C.3     1  lig        -0.0743
     21 N1         24.2041    1.3387   12.9743 N.4     1  lig        -0.8330
     22 O1         24.9856    2.6285   10.2668 O.co2   1  lig        -0.7110
     23 O2         26.1793    3.6197   11.7983 O.co2   1  lig        -0.8016
     24 O3         23.0664    8.9025   11.8318 O.3     1  lig        -0.4958
@<TRIPOS>BOND
     1    20    21    1
     2     8    21    1
     3     9    21    1
     4    10    21    1
     5    18    20    1
     6    19    20    1
     7     7    20    1
     8    18    23    1
     9    18    22    1
    10    16    19    1
    11     5    19    1
    12     6    19    1
    13    12    16   ar
    14    13    16   ar
    15    12    14   ar
    16     1    12    1
    17    13    15   ar
    18     2    13    1
    19    14    17   ar
    20     3    14    1
    21    15    17   ar
    22     4    15    1
    23    17    24    1
    24    11    24    1
@<TRIPOS>SUBSTRUCTURE
     1 lig         1 TEMP              0 ****  ****    0 ROOT


########## Name:		ligand
########## HA_RMSDs:		10.9909
########## HA_RMSDh:		10.9400
########## HA_RMSDm:		9.2686
########## Cluster Size:	1
##########    Grid Score:          -18.316395
##########      Grid_vdw:          -14.656161
##########       Grid_es:           -3.660233
##########    Int_energy:            1.770465

@<TRIPOS>MOLECULE
ligand
 24 24 1 0 0
SMALL
No Charge or Current Charge


@<TRIPOS>ATOM
      1 H1         13.6257   10.7040   21.2722 H       1  lig         0.1313
      2 H2         10.5859   11.2976   24.2124 H       1  lig         0.1473
      3 H3         15.2852   11.4778   22.8840 H       1  lig         0.1394
      4 H4         12.2511   12.1300   25.8283 H       1  lig         0.1574
      5 H5          9.9818   10.7372   22.0372 H       1  lig         0.1170
      6 H6         11.0497   11.0234   20.7011 H       1  lig         0.0678
      7 H7         11.9883    8.6634   21.0049 H       1  lig         0.0912
      8 H8         10.2382    9.2224   19.4003 H       1  lig         0.4249
      9 H9          9.9385    7.7092   20.0279 H       1  lig         0.4256
     10 H10         9.0637    9.0224   20.5750 H       1  lig         0.4835
     11 H11        15.6925   12.1752   24.7517 H       1  lig         0.4236
     12 C1         13.3100   11.0188   22.2650 C.ar    1  lig        -0.1098
     13 C2         11.6338   11.3509   23.9211 C.ar    1  lig        -0.0948
     14 C3         14.2391   11.4483   23.1721 C.ar    1  lig        -0.2079
     15 C4         12.5587   11.8244   24.8320 C.ar    1  lig        -0.1468
     16 C5         12.0006   10.9744   22.6342 C.ar    1  lig        -0.1510
     17 C6         13.8862   11.8782   24.4238 C.ar    1  lig         0.1263
     18 C7         10.6793    8.1930   22.5943 C.2     1  lig         0.9365
     19 C8         10.9661   10.4769   21.6426 C.3     1  lig        -0.0459
     20 C9         10.9991    8.9779   21.3427 C.3     1  lig        -0.0743
     21 N1         10.0303    8.7160   20.2791 N.4     1  lig        -0.8330
     22 O1          9.5248    8.3187   22.9968 O.co2   1  lig        -0.7110
     23 O2         11.5281    7.4853   23.2087 O.co2   1  lig        -0.8016
     24 O3         14.8091   12.2486   25.2191 O.3     1  lig        -0.4958
@<TRIPOS>BOND
     1    20    21    1
     2     8    21    1
     3     9    21    1
     4    10    21    1
     5    18    20    1
     6    19    20    1
     7     7    20    1
     8    18    23    1
     9    18    22    1
    10    16    19    1
    11     5    19    1
    12     6    19    1
    13    12    16   ar
    14    13    16   ar
    15    12    14   ar
    16     1    12    1
    17    13    15   ar
    18     2    13    1
    19    14    17   ar
    20     3    14    1
    21    15    17   ar
    22     4    15    1
    23    17    24    1
    24    11    24    1
@<TRIPOS>SUBSTRUCTURE
     1 lig         1 TEMP              0 ****  ****    0 ROOT


########## Name:		ligand
########## HA_RMSDs:		12.9226
########## HA_RMSDh:		12.8585
########## HA_RMSDm:		9.3552
########## Cluster Size:	1
##########    Grid Score:          -18.281860
##########      Grid_vdw:          -12.904425
##########       Grid_es:           -5.377435
##########    Int_energy:            2.954695

@<TRIPOS>MOLECULE
ligand
 24 24 1 0 0
SMALL
No Charge or Current Charge


@<TRIPOS>ATOM
      1 H1         17.9861   18.2843   27.9628 H       1  lig         0.1313
      2 H2         15.4347   20.3601   30.6865 H       1  lig         0.1473
      3 H3         16.0842   16.9189   27.2782 H       1  lig         0.1394
      4 H4         13.5209   18.9487   30.0368 H       1  lig         0.1574
      5 H5         18.6299   20.4135   28.9160 H       1  lig         0.1170
      6 H6         17.6638   21.2506   30.0879 H       1  lig         0.0678
      7 H7         18.3244   19.6307   31.8616 H       1  lig         0.0912
      8 H8         19.7255   21.5662   31.3706 H       1  lig         0.4249
      9 H9         20.6969   20.2916   31.8239 H       1  lig         0.4256
     10 H10        20.5605   20.6976   30.2097 H       1  lig         0.4835
     11 H11        12.9033   17.3781   28.6240 H       1  lig         0.4236
     12 C1         17.0149   18.4366   28.4295 C.ar    1  lig        -0.1098
     13 C2         15.5731   19.5839   29.9353 C.ar    1  lig        -0.0948
     14 C3         15.9458   17.6757   28.0438 C.ar    1  lig        -0.2079
     15 C4         14.4956   18.7942   29.5822 C.ar    1  lig        -0.1468
     16 C5         16.8341   19.3910   29.3830 C.ar    1  lig        -0.1510
     17 C6         14.7111   17.8140   28.6206 C.ar    1  lig         0.1263
     18 C7         19.3407   18.2988   30.5754 C.2     1  lig         0.9365
     19 C8         18.0087   20.2556   29.8001 C.3     1  lig        -0.0459
     20 C9         18.8805   19.6956   30.9245 C.3     1  lig        -0.0743
     21 N1         20.0101   20.6064   31.1067 N.4     1  lig        -0.8330
     22 O1         20.3878   18.2499   29.9337 O.co2   1  lig        -0.7110
     23 O2         18.6955   17.2556   30.8826 O.co2   1  lig        -0.8016
     24 O3         13.7600   17.0807   28.1976 O.3     1  lig        -0.4958
@<TRIPOS>BOND
     1    20    21    1
     2     8    21    1
     3     9    21    1
     4    10    21    1
     5    18    20    1
     6    19    20    1
     7     7    20    1
     8    18    23    1
     9    18    22    1
    10    16    19    1
    11     5    19    1
    12     6    19    1
    13    12    16   ar
    14    13    16   ar
    15    12    14   ar
    16     1    12    1
    17    13    15   ar
    18     2    13    1
    19    14    17   ar
    20     3    14    1
    21    15    17   ar
    22     4    15    1
    23    17    24    1
    24    11    24    1
@<TRIPOS>SUBSTRUCTURE
     1 lig         1 TEMP              0 ****  ****    0 ROOT


########## Name:		ligand
########## HA_RMSDs:		12.3231
########## HA_RMSDh:		12.2251
########## HA_RMSDm:		8.2417
########## Cluster Size:	2
##########    Grid Score:          -18.247988
##########      Grid_vdw:          -14.573361
##########       Grid_es:           -3.674626
##########    Int_energy:            2.026474

@<TRIPOS>MOLECULE
ligand
 24 24 1 0 0
SMALL
No Charge or Current Charge


@<TRIPOS>ATOM
      1 H1         13.6687   15.2989   28.9662 H       1  lig         0.1313
      2 H2         16.0689   17.9892   26.6774 H       1  lig         0.1473
      3 H3         14.4093   13.4724   27.5289 H       1  lig         0.1394
      4 H4         16.7799   16.1570   25.1893 H       1  lig         0.1574
      5 H5         13.6484   18.5034   28.2362 H       1  lig         0.1170
      6 H6         13.7984   17.5098   29.6496 H       1  lig         0.0678
      7 H7         16.1243   19.1433   28.5118 H       1  lig         0.0912
      8 H8         16.7132   17.1893   29.8480 H       1  lig         0.4249
      9 H9         17.0384   18.5670   30.7252 H       1  lig         0.4256
     10 H10        15.6679   17.6738   31.0612 H       1  lig         0.4835
     11 H11        16.3094   14.0063   24.6906 H       1  lig         0.4236
     12 C1         14.3459   15.5020   28.1390 C.ar    1  lig        -0.1098
     13 C2         15.6955   16.9815   26.8536 C.ar    1  lig        -0.0948
     14 C3         14.7665   14.4788   27.3347 C.ar    1  lig        -0.2079
     15 C4         16.0954   15.9624   26.0105 C.ar    1  lig        -0.1468
     16 C5         14.8043   16.7606   27.8974 C.ar    1  lig        -0.1510
     17 C6         15.5977   14.6902   26.2667 C.ar    1  lig         0.1263
     18 C7         14.8824   20.0334   29.9699 C.2     1  lig         0.9365
     19 C8         14.3618   17.8977   28.7987 C.3     1  lig        -0.0459
     20 C9         15.4767   18.8038   29.3222 C.3     1  lig        -0.0743
     21 N1         16.2733   18.0259   30.2704 N.4     1  lig        -0.8330
     22 O1         15.3521   20.3098   31.0715 O.co2   1  lig        -0.7110
     23 O2         13.9537   20.7153   29.4490 O.co2   1  lig        -0.8016
     24 O3         15.9593   13.6855   25.5730 O.3     1  lig        -0.4958
@<TRIPOS>BOND
     1    20    21    1
     2     8    21    1
     3     9    21    1
     4    10    21    1
     5    18    20    1
     6    19    20    1
     7     7    20    1
     8    18    23    1
     9    18    22    1
    10    16    19    1
    11     5    19    1
    12     6    19    1
    13    12    16   ar
    14    13    16   ar
    15    12    14   ar
    16     1    12    1
    17    13    15   ar
    18     2    13    1
    19    14    17   ar
    20     3    14    1
    21    15    17   ar
    22     4    15    1
    23    17    24    1
    24    11    24    1
@<TRIPOS>SUBSTRUCTURE
     1 lig         1 TEMP              0 ****  ****    0 ROOT


########## Name:		ligand
########## HA_RMSDs:		11.7782
########## HA_RMSDh:		11.6915
########## HA_RMSDm:		9.5006
########## Cluster Size:	1
##########    Grid Score:          -18.220695
##########      Grid_vdw:          -14.570539
##########       Grid_es:           -3.650157
##########    Int_energy:            3.324865

@<TRIPOS>MOLECULE
ligand
 24 24 1 0 0
SMALL
No Charge or Current Charge


@<TRIPOS>ATOM
      1 H1         12.6158    7.7372   22.5924 H       1  lig         0.1313
      2 H2         16.1413   10.1466   22.5439 H       1  lig         0.1473
      3 H3         13.9213    5.9098   23.5445 H       1  lig         0.1394
      4 H4         17.4770    8.2867   23.4569 H       1  lig         0.1574
      5 H5         14.0495   11.1139   22.0962 H       1  lig         0.1170
      6 H6         13.4320   10.1078   20.8258 H       1  lig         0.0678
      7 H7         11.7734    9.4720   23.0386 H       1  lig         0.0912
      8 H8         11.1686    9.7091   20.6874 H       1  lig         0.4249
      9 H9         10.1762   10.6814   21.6057 H       1  lig         0.4256
     10 H10        11.4458   11.3576   20.7573 H       1  lig         0.4835
     11 H11        17.1784    6.3074   24.5420 H       1  lig         0.4236
     12 C1         13.6810    7.8693   22.7714 C.ar    1  lig        -0.1098
     13 C2         15.6567    9.1957   22.7599 C.ar    1  lig        -0.0948
     14 C3         14.4142    6.8479   23.3097 C.ar    1  lig        -0.2079
     15 C4         16.4152    8.1574   23.2660 C.ar    1  lig        -0.1468
     16 C5         14.3016    9.0471   22.4878 C.ar    1  lig        -0.1510
     17 C6         15.7618    6.9591   23.5286 C.ar    1  lig         0.1263
     18 C7         12.0191   11.5373   23.4058 C.2     1  lig         0.9365
     19 C8         13.4915   10.1934   21.9126 C.3     1  lig        -0.0459
     20 C9         12.0762   10.3525   22.4690 C.3     1  lig        -0.0743
     21 N1         11.1685   10.5174   21.3343 N.4     1  lig        -0.8330
     22 O1         10.9391   12.1238   23.4247 O.co2   1  lig        -0.7110
     23 O2         13.0035   11.9270   24.0971 O.co2   1  lig        -0.8016
     24 O3         16.3741    5.9709   24.0480 O.3     1  lig        -0.4958
@<TRIPOS>BOND
     1    20    21    1
     2     8    21    1
     3     9    21    1
     4    10    21    1
     5    18    20    1
     6    19    20    1
     7     7    20    1
     8    18    23    1
     9    18    22    1
    10    16    19    1
    11     5    19    1
    12     6    19    1
    13    12    16   ar
    14    13    16   ar
    15    12    14   ar
    16     1    12    1
    17    13    15   ar
    18     2    13    1
    19    14    17   ar
    20     3    14    1
    21    15    17   ar
    22     4    15    1
    23    17    24    1
    24    11    24    1
@<TRIPOS>SUBSTRUCTURE
     1 lig         1 TEMP              0 ****  ****    0 ROOT


########## Name:		ligand
########## HA_RMSDs:		14.3111
########## HA_RMSDh:		14.2375
########## HA_RMSDm:		12.6414
########## Cluster Size:	2
##########    Grid Score:          -18.191532
##########      Grid_vdw:          -14.812194
##########       Grid_es:           -3.379338
##########    Int_energy:            1.116899

@<TRIPOS>MOLECULE
ligand
 24 24 1 0 0
SMALL
No Charge or Current Charge


@<TRIPOS>ATOM
      1 H1         25.9996    8.6105   13.3058 H       1  lig         0.1313
      2 H2         24.2936    6.1999   16.3906 H       1  lig         0.1473
      3 H3         24.1988    7.9137   11.8152 H       1  lig         0.1394
      4 H4         22.5008    5.4510   14.8734 H       1  lig         0.1574
      5 H5         26.9010    8.7050   15.3911 H       1  lig         0.1170
      6 H6         25.9553    8.2939   16.7853 H       1  lig         0.0678
      7 H7         27.0731    5.8119   15.9221 H       1  lig         0.0912
      8 H8         26.6319    6.5829   18.1939 H       1  lig         0.4249
      9 H9         28.2300    6.1302   18.0731 H       1  lig         0.4256
     10 H10        27.8229    7.7497   18.0551 H       1  lig         0.4835
     11 H11        21.5375    6.0327   12.9055 H       1  lig         0.4236
     12 C1         25.2429    7.9134   13.6605 C.ar    1  lig        -0.1098
     13 C2         24.2710    6.5687   15.3662 C.ar    1  lig        -0.0948
     14 C3         24.2294    7.5251   12.8282 C.ar    1  lig        -0.2079
     15 C4         23.2653    6.1385   14.5219 C.ar    1  lig        -0.1468
     16 C5         25.2715    7.4311   14.9330 C.ar    1  lig        -0.1510
     17 C6         23.2698    6.6305   13.2220 C.ar    1  lig         0.1263
     18 C7         28.7231    7.0853   15.5804 C.2     1  lig         0.9365
     19 C8         26.3785    7.8747   15.8704 C.3     1  lig        -0.0459
     20 C9         27.3984    6.8008   16.2505 C.3     1  lig        -0.0743
     21 N1         27.5201    6.7992   17.7078 N.4     1  lig        -0.8330
     22 O1         29.5073    7.7475   16.2565 O.co2   1  lig        -0.7110
     23 O2         29.0055    6.7081   14.4070 O.co2   1  lig        -0.8016
     24 O3         22.3483    6.3291   12.3966 O.3     1  lig        -0.4958
@<TRIPOS>BOND
     1    20    21    1
     2     8    21    1
     3     9    21    1
     4    10    21    1
     5    18    20    1
     6    19    20    1
     7     7    20    1
     8    18    23    1
     9    18    22    1
    10    16    19    1
    11     5    19    1
    12     6    19    1
    13    12    16   ar
    14    13    16   ar
    15    12    14   ar
    16     1    12    1
    17    13    15   ar
    18     2    13    1
    19    14    17   ar
    20     3    14    1
    21    15    17   ar
    22     4    15    1
    23    17    24    1
    24    11    24    1
@<TRIPOS>SUBSTRUCTURE
     1 lig         1 TEMP              0 ****  ****    0 ROOT


########## Name:		ligand
########## HA_RMSDs:		16.7638
########## HA_RMSDh:		16.7436
########## HA_RMSDm:		14.7105
########## Cluster Size:	1
##########    Grid Score:          -18.145172
##########      Grid_vdw:          -16.092850
##########       Grid_es:           -2.052322
##########    Int_energy:            1.235696

@<TRIPOS>MOLECULE
ligand
 24 24 1 0 0
SMALL
No Charge or Current Charge


@<TRIPOS>ATOM
      1 H1          8.7827    4.7558   22.3317 H       1  lig         0.1313
      2 H2          5.3905    7.0136   21.0538 H       1  lig         0.1473
      3 H3         10.2357    6.4490   21.3457 H       1  lig         0.1394
      4 H4          6.8529    8.7012   20.0098 H       1  lig         0.1574
      5 H5          6.7022    4.1090   23.0190 H       1  lig         0.1170
      6 H6          5.3598    5.2069   23.0181 H       1  lig         0.0678
      7 H7          5.2234    4.2998   20.4094 H       1  lig         0.0912
      8 H8          3.4512    4.4113   22.0818 H       1  lig         0.4249
      9 H9          3.4380    2.9038   21.3740 H       1  lig         0.4256
     10 H10         4.1018    3.1009   22.8937 H       1  lig         0.4835
     11 H11         9.0551    8.9570   19.3398 H       1  lig         0.4236
     12 C1          8.3466    5.6122   21.8210 C.ar    1  lig        -0.1098
     13 C2          6.4712    6.8901   21.1051 C.ar    1  lig        -0.0948
     14 C3          9.1591    6.5654   21.2717 C.ar    1  lig        -0.2079
     15 C4          7.2823    7.8385   20.5118 C.ar    1  lig        -0.1468
     16 C5          6.9971    5.7675   21.7342 C.ar    1  lig        -0.1510
     17 C6          8.6562    7.6465   20.5975 C.ar    1  lig         0.1263
     18 C7          6.1204    2.5431   21.1646 C.2     1  lig         0.9365
     19 C8          6.0882    4.7275   22.3612 C.3     1  lig        -0.0459
     20 C9          5.3416    3.8201   21.3827 C.3     1  lig        -0.0743
     21 N1          4.0173    3.5555   21.9439 N.4     1  lig        -0.8330
     22 O1          5.8914    1.6570   21.9849 O.co2   1  lig        -0.7110
     23 O2          6.9671    2.3933   20.2375 O.co2   1  lig        -0.8016
     24 O3          9.4749    8.5007   20.1270 O.3     1  lig        -0.4958
@<TRIPOS>BOND
     1    20    21    1
     2     8    21    1
     3     9    21    1
     4    10    21    1
     5    18    20    1
     6    19    20    1
     7     7    20    1
     8    18    23    1
     9    18    22    1
    10    16    19    1
    11     5    19    1
    12     6    19    1
    13    12    16   ar
    14    13    16   ar
    15    12    14   ar
    16     1    12    1
    17    13    15   ar
    18     2    13    1
    19    14    17   ar
    20     3    14    1
    21    15    17   ar
    22     4    15    1
    23    17    24    1
    24    11    24    1
@<TRIPOS>SUBSTRUCTURE
     1 lig         1 TEMP              0 ****  ****    0 ROOT


########## Name:		ligand
########## HA_RMSDs:		16.5770
########## HA_RMSDh:		16.5189
########## HA_RMSDm:		14.2626
########## Cluster Size:	1
##########    Grid Score:          -18.138338
##########      Grid_vdw:          -14.990592
##########       Grid_es:           -3.147747
##########    Int_energy:            2.030154

@<TRIPOS>MOLECULE
ligand
 24 24 1 0 0
SMALL
No Charge or Current Charge


@<TRIPOS>ATOM
      1 H1          5.0836    8.0995   22.6824 H       1  lig         0.1313
      2 H2          8.4346    5.7783   23.9551 H       1  lig         0.1473
      3 H3          3.6055    6.3076   23.4269 H       1  lig         0.1394
      4 H4          6.9493    3.9420   24.6612 H       1  lig         0.1574
      5 H5          7.1725    9.0654   22.7159 H       1  lig         0.1170
      6 H6          8.5060    8.3798   23.5872 H       1  lig         0.0678
      7 H7          9.2715    7.1410   21.5972 H       1  lig         0.0912
      8 H8          9.8734    9.4931   21.8330 H       1  lig         0.4249
      9 H9          9.6867    9.1381   20.2166 H       1  lig         0.4256
     10 H10         8.4794    9.9552   21.0313 H       1  lig         0.4835
     11 H11         3.6285    4.5735   24.9984 H       1  lig         0.4236
     12 C1          5.5060    7.1918   23.1089 C.ar    1  lig        -0.1098
     13 C2          7.3579    5.8836   23.8313 C.ar    1  lig        -0.0948
     14 C3          4.6791    6.1877   23.5316 C.ar    1  lig        -0.2079
     15 C4          6.5341    4.8464   24.2248 C.ar    1  lig        -0.1468
     16 C5          6.8513    7.0410   23.2513 C.ar    1  lig        -0.1510
     17 C6          5.1658    5.0173   24.0507 C.ar    1  lig         0.1263
     18 C7          7.5491    7.4775   20.4220 C.2     1  lig         0.9365
     19 C8          7.7749    8.1592   22.8070 C.3     1  lig        -0.0459
     20 C9          8.5187    7.9245   21.4919 C.3     1  lig        -0.0743
     21 N1          9.1846    9.1748   21.1286 N.4     1  lig        -0.8330
     22 O1          6.9047    8.3862   19.9027 O.co2   1  lig        -0.7110
     23 O2          7.3786    6.2672   20.0979 O.co2   1  lig        -0.8016
     24 O3          4.3336    4.1347   24.4377 O.3     1  lig        -0.4958
@<TRIPOS>BOND
     1    20    21    1
     2     8    21    1
     3     9    21    1
     4    10    21    1
     5    18    20    1
     6    19    20    1
     7     7    20    1
     8    18    23    1
     9    18    22    1
    10    16    19    1
    11     5    19    1
    12     6    19    1
    13    12    16   ar
    14    13    16   ar
    15    12    14   ar
    16     1    12    1
    17    13    15   ar
    18     2    13    1
    19    14    17   ar
    20     3    14    1
    21    15    17   ar
    22     4    15    1
    23    17    24    1
    24    11    24    1
@<TRIPOS>SUBSTRUCTURE
     1 lig         1 TEMP              0 ****  ****    0 ROOT


########## Name:		ligand
########## HA_RMSDs:		14.5859
########## HA_RMSDh:		14.4813
########## HA_RMSDm:		12.6437
########## Cluster Size:	1
##########    Grid Score:          -18.113274
##########      Grid_vdw:          -14.180808
##########       Grid_es:           -3.932465
##########    Int_energy:            2.434095

@<TRIPOS>MOLECULE
ligand
 24 24 1 0 0
SMALL
No Charge or Current Charge


@<TRIPOS>ATOM
      1 H1         23.7844    6.8636   13.3370 H       1  lig         0.1313
      2 H2         26.1228    7.0307   16.9065 H       1  lig         0.1473
      3 H3         22.4508    5.0827   14.3371 H       1  lig         0.1394
      4 H4         24.8123    5.1956   17.9024 H       1  lig         0.1574
      5 H5         25.6099    8.2228   13.3826 H       1  lig         0.1170
      6 H6         25.5747    9.1236   14.8640 H       1  lig         0.0678
      7 H7         27.6859    7.8617   15.6068 H       1  lig         0.0912
      8 H8         27.7051   10.0950   14.6260 H       1  lig         0.4249
      9 H9         29.0358    9.2516   14.0862 H       1  lig         0.4256
     10 H10        27.7134    9.4444   13.0846 H       1  lig         0.4835
     11 H11        21.8691    4.2319   16.2735 H       1  lig         0.4236
     12 C1         24.0241    6.5039   14.3357 C.ar    1  lig        -0.1098
     13 C2         25.3095    6.5838   16.3367 C.ar    1  lig        -0.0948
     14 C3         23.2748    5.5088   14.9006 C.ar    1  lig        -0.2079
     15 C4         24.5846    5.5519   16.9014 C.ar    1  lig        -0.1468
     16 C5         25.0503    7.0419   15.0501 C.ar    1  lig        -0.1510
     17 C6         23.5548    5.0066   16.1438 C.ar    1  lig         0.1263
     18 C7         27.8641    6.8225   13.7768 C.2     1  lig         0.9365
     19 C8         25.8719    8.1621   14.4409 C.3     1  lig        -0.0459
     20 C9         27.3889    8.0193   14.5683 C.3     1  lig        -0.0743
     21 N1         27.9942    9.2602   14.0862 N.4     1  lig        -0.8330
     22 O1         28.8815    6.2900   14.2146 O.co2   1  lig        -0.7110
     23 O2         27.2916    6.4091   12.7279 O.co2   1  lig        -0.8016
     24 O3         22.8024    4.0913   16.6102 O.3     1  lig        -0.4958
@<TRIPOS>BOND
     1    20    21    1
     2     8    21    1
     3     9    21    1
     4    10    21    1
     5    18    20    1
     6    19    20    1
     7     7    20    1
     8    18    23    1
     9    18    22    1
    10    16    19    1
    11     5    19    1
    12     6    19    1
    13    12    16   ar
    14    13    16   ar
    15    12    14   ar
    16     1    12    1
    17    13    15   ar
    18     2    13    1
    19    14    17   ar
    20     3    14    1
    21    15    17   ar
    22     4    15    1
    23    17    24    1
    24    11    24    1
@<TRIPOS>SUBSTRUCTURE
     1 lig         1 TEMP              0 ****  ****    0 ROOT


########## Name:		ligand
########## HA_RMSDs:		11.0328
########## HA_RMSDh:		10.9930
########## HA_RMSDm:		9.2648
########## Cluster Size:	1
##########    Grid Score:          -18.094791
##########      Grid_vdw:          -18.898706
##########       Grid_es:            0.803915
##########    Int_energy:            1.935936

@<TRIPOS>MOLECULE
ligand
 24 24 1 0 0
SMALL
No Charge or Current Charge


@<TRIPOS>ATOM
      1 H1         10.9895   10.9535   23.4854 H       1  lig         0.1313
      2 H2         12.9434    9.1756   20.1301 H       1  lig         0.1473
      3 H3          8.8488   10.1960   22.5944 H       1  lig         0.1394
      4 H4         10.7789    8.4529   19.1978 H       1  lig         0.1574
      5 H5         13.7952   11.3957   21.7758 H       1  lig         0.1170
      6 H6         13.2996   11.0313   23.3972 H       1  lig         0.0678
      7 H7         14.6944    9.0427   21.5315 H       1  lig         0.0912
      8 H8         13.1634    8.0288   23.1371 H       1  lig         0.4249
      9 H9         14.7304    7.7204   23.6092 H       1  lig         0.4256
     10 H10        13.8493    8.9090   24.3837 H       1  lig         0.4835
     11 H11         8.5929    8.5773   19.5228 H       1  lig         0.4236
     12 C1         10.9573   10.4117   22.5422 C.ar    1  lig        -0.1098
     13 C2         12.0253    9.4080   20.6675 C.ar    1  lig        -0.0948
     14 C3          9.7588    9.9815   22.0430 C.ar    1  lig        -0.2079
     15 C4         10.8166    9.0036   20.1337 C.ar    1  lig        -0.1468
     16 C5         12.0967   10.1318   21.8521 C.ar    1  lig        -0.1510
     17 C6          9.6665    9.3188   20.8478 C.ar    1  lig         0.1263
     18 C7         15.8179   10.1210   22.9583 C.2     1  lig         0.9365
     19 C8         13.4327   10.5843   22.4101 C.3     1  lig        -0.0459
     20 C9         14.5139    9.5071   22.5027 C.3     1  lig        -0.0743
     21 N1         14.0437    8.4843   23.4362 N.4     1  lig        -0.8330
     22 O1         16.8248    9.5456   22.5512 O.co2   1  lig        -0.7110
     23 O2         15.8852   11.1257   23.7230 O.co2   1  lig        -0.8016
     24 O3          8.5174    8.9353   20.4556 O.3     1  lig        -0.4958
@<TRIPOS>BOND
     1    20    21    1
     2     8    21    1
     3     9    21    1
     4    10    21    1
     5    18    20    1
     6    19    20    1
     7     7    20    1
     8    18    23    1
     9    18    22    1
    10    16    19    1
    11     5    19    1
    12     6    19    1
    13    12    16   ar
    14    13    16   ar
    15    12    14   ar
    16     1    12    1
    17    13    15   ar
    18     2    13    1
    19    14    17   ar
    20     3    14    1
    21    15    17   ar
    22     4    15    1
    23    17    24    1
    24    11    24    1
@<TRIPOS>SUBSTRUCTURE
     1 lig         1 TEMP              0 ****  ****    0 ROOT


########## Name:		ligand
########## HA_RMSDs:		11.4909
########## HA_RMSDh:		11.4460
########## HA_RMSDm:		10.1880
########## Cluster Size:	2
##########    Grid Score:          -18.077169
##########      Grid_vdw:          -15.337906
##########       Grid_es:           -2.739263
##########    Int_energy:            2.580511

@<TRIPOS>MOLECULE
ligand
 24 24 1 0 0
SMALL
No Charge or Current Charge


@<TRIPOS>ATOM
      1 H1         17.4206   18.8310   30.0797 H       1  lig         0.1313
      2 H2         18.4734   15.1085   28.2710 H       1  lig         0.1473
      3 H3         19.7807   19.4471   30.1006 H       1  lig         0.1394
      4 H4         20.8648   15.7033   28.3373 H       1  lig         0.1574
      5 H5         16.2802   15.4589   29.0303 H       1  lig         0.1170
      6 H6         15.8714   16.7338   30.1325 H       1  lig         0.0678
      7 H7         15.5557   18.3039   28.1497 H       1  lig         0.0912
      8 H8         13.7194   17.0803   29.1893 H       1  lig         0.4249
      9 H9         13.4511   17.1744   27.5483 H       1  lig         0.4256
     10 H10        14.0204   15.7533   28.2156 H       1  lig         0.4835
     11 H11        21.6923   18.9955   29.5240 H       1  lig         0.4236
     12 C1         18.1650   18.1340   29.7001 C.ar    1  lig        -0.1098
     13 C2         18.7743   16.0690   28.6867 C.ar    1  lig        -0.0948
     14 C3         19.4885   18.4791   29.7062 C.ar    1  lig        -0.2079
     15 C4         20.1176   16.3907   28.7246 C.ar    1  lig        -0.1468
     16 C5         17.8025   16.9229   29.1954 C.ar    1  lig        -0.1510
     17 C6         20.4630   17.6248   29.2627 C.ar    1  lig         0.1263
     18 C7         16.0095   16.8267   26.7100 C.2     1  lig         0.9365
     19 C8         16.3348   16.5414   29.1629 C.3     1  lig        -0.0459
     20 C9         15.4961   17.2164   28.0772 C.3     1  lig        -0.0743
     21 N1         14.1060   16.8048   28.2691 N.4     1  lig        -0.8330
     22 O1         15.9006   17.7015   25.8535 O.co2   1  lig        -0.7110
     23 O2         16.4856   15.6860   26.4437 O.co2   1  lig        -0.8016
     24 O3         21.6724   18.0227   29.2844 O.3     1  lig        -0.4958
@<TRIPOS>BOND
     1    20    21    1
     2     8    21    1
     3     9    21    1
     4    10    21    1
     5    18    20    1
     6    19    20    1
     7     7    20    1
     8    18    23    1
     9    18    22    1
    10    16    19    1
    11     5    19    1
    12     6    19    1
    13    12    16   ar
    14    13    16   ar
    15    12    14   ar
    16     1    12    1
    17    13    15   ar
    18     2    13    1
    19    14    17   ar
    20     3    14    1
    21    15    17   ar
    22     4    15    1
    23    17    24    1
    24    11    24    1
@<TRIPOS>SUBSTRUCTURE
     1 lig         1 TEMP              0 ****  ****    0 ROOT


########## Name:		ligand
########## HA_RMSDs:		9.8178
########## HA_RMSDh:		9.8178
########## HA_RMSDm:		8.3230
########## Cluster Size:	2
##########    Grid Score:          -17.990259
##########      Grid_vdw:          -13.496014
##########       Grid_es:           -4.494246
##########    Int_energy:            3.968560

@<TRIPOS>MOLECULE
ligand
 24 24 1 0 0
SMALL
No Charge or Current Charge


@<TRIPOS>ATOM
      1 H1         17.6794   15.5783   26.7062 H       1  lig         0.1313
      2 H2         14.2328   13.2652   27.7101 H       1  lig         0.1473
      3 H3         16.4431   17.6020   27.2777 H       1  lig         0.1394
      4 H4         12.9614   15.3098   28.2390 H       1  lig         0.1574
      5 H5         17.7739   13.1094   27.2929 H       1  lig         0.1170
      6 H6         16.3183   12.1669   27.2734 H       1  lig         0.0678
      7 H7         17.0974   11.6837   25.1339 H       1  lig         0.0912
      8 H8         19.0624   13.1034   25.4044 H       1  lig         0.4249
      9 H9         18.4232   13.3417   23.8851 H       1  lig         0.4256
     10 H10        18.1494   14.4690   25.0865 H       1  lig         0.4835
     11 H11        13.0727   17.5509   28.0623 H       1  lig         0.4236
     12 C1         16.6446   15.5054   27.0352 C.ar    1  lig        -0.1098
     13 C2         14.7144   14.2363   27.6064 C.ar    1  lig        -0.0948
     14 C3         15.9508   16.6382   27.3610 C.ar    1  lig        -0.2079
     15 C4         13.9915   15.3768   27.8997 C.ar    1  lig        -0.1468
     16 C5         16.0262   14.2983   27.1506 C.ar    1  lig        -0.1510
     17 C6         14.6396   16.5978   27.7550 C.ar    1  lig         0.1263
     18 C7         15.7918   13.2352   24.5432 C.2     1  lig         0.9365
     19 C8         16.7953   13.0349   26.8141 C.3     1  lig        -0.0459
     20 C9         16.9928   12.7534   25.3243 C.3     1  lig        -0.0743
     21 N1         18.2182   13.4311   24.9025 N.4     1  lig        -0.8330
     22 O1         15.8592   14.4040   24.1692 O.co2   1  lig        -0.7110
     23 O2         14.7770   12.5170   24.3125 O.co2   1  lig        -0.8016
     24 O3         14.0646   17.6928   28.0576 O.3     1  lig        -0.4958
@<TRIPOS>BOND
     1    20    21    1
     2     8    21    1
     3     9    21    1
     4    10    21    1
     5    18    20    1
     6    19    20    1
     7     7    20    1
     8    18    23    1
     9    18    22    1
    10    16    19    1
    11     5    19    1
    12     6    19    1
    13    12    16   ar
    14    13    16   ar
    15    12    14   ar
    16     1    12    1
    17    13    15   ar
    18     2    13    1
    19    14    17   ar
    20     3    14    1
    21    15    17   ar
    22     4    15    1
    23    17    24    1
    24    11    24    1
@<TRIPOS>SUBSTRUCTURE
     1 lig         1 TEMP              0 ****  ****    0 ROOT


########## Name:		ligand
########## HA_RMSDs:		11.0686
########## HA_RMSDh:		11.0446
########## HA_RMSDm:		9.2833
########## Cluster Size:	2
##########    Grid Score:          -17.914700
##########      Grid_vdw:          -18.858652
##########       Grid_es:            0.943953
##########    Int_energy:            1.973763

@<TRIPOS>MOLECULE
ligand
 24 24 1 0 0
SMALL
No Charge or Current Charge


@<TRIPOS>ATOM
      1 H1         12.3605   12.3037   23.4728 H       1  lig         0.1313
      2 H2         10.0855    9.0275   21.9470 H       1  lig         0.1473
      3 H3         10.3775   13.0797   24.6627 H       1  lig         0.1394
      4 H4          8.0647    9.8356   23.1048 H       1  lig         0.1574
      5 H5         12.2633    9.8228   20.8908 H       1  lig         0.1170
      6 H6         13.2766   10.9536   21.7286 H       1  lig         0.0678
      7 H7         12.6583    8.1249   22.7274 H       1  lig         0.0912
      8 H8         13.0636    9.7624   24.4893 H       1  lig         0.4249
      9 H9         14.3828    8.7528   24.3701 H       1  lig         0.4256
     10 H10        14.4509   10.2877   23.7154 H       1  lig         0.4835
     11 H11         7.3096   11.4420   24.4067 H       1  lig         0.4236
     12 C1         11.4245   11.7566   23.3788 C.ar    1  lig        -0.1098
     13 C2         10.1391    9.9355   22.5458 C.ar    1  lig        -0.0948
     14 C3         10.3125   12.1869   24.0489 C.ar    1  lig        -0.2079
     15 C4          8.9996   10.3834   23.1862 C.ar    1  lig        -0.1468
     16 C5         11.3406   10.6310   22.6181 C.ar    1  lig        -0.1510
     17 C6          9.1069   11.5458   23.9406 C.ar    1  lig         0.1263
     18 C7         14.4456    8.5037   21.6677 C.2     1  lig         0.9365
     19 C8         12.5748   10.1331   21.8903 C.3     1  lig        -0.0459
     20 C9         13.3196    8.9768   22.5582 C.3     1  lig        -0.0743
     21 N1         13.8160    9.4540   23.8484 N.4     1  lig        -0.8330
     22 O1         15.4477    8.1218   22.2682 O.co2   1  lig        -0.7110
     23 O2         14.3900    8.5232   20.4046 O.co2   1  lig        -0.8016
     24 O3          8.1200   11.9961   24.6074 O.3     1  lig        -0.4958
@<TRIPOS>BOND
     1    20    21    1
     2     8    21    1
     3     9    21    1
     4    10    21    1
     5    18    20    1
     6    19    20    1
     7     7    20    1
     8    18    23    1
     9    18    22    1
    10    16    19    1
    11     5    19    1
    12     6    19    1
    13    12    16   ar
    14    13    16   ar
    15    12    14   ar
    16     1    12    1
    17    13    15   ar
    18     2    13    1
    19    14    17   ar
    20     3    14    1
    21    15    17   ar
    22     4    15    1
    23    17    24    1
    24    11    24    1
@<TRIPOS>SUBSTRUCTURE
     1 lig         1 TEMP              0 ****  ****    0 ROOT


########## Name:		ligand
########## HA_RMSDs:		16.3151
########## HA_RMSDh:		16.3151
########## HA_RMSDm:		13.9875
########## Cluster Size:	2
##########    Grid Score:          -17.908489
##########      Grid_vdw:          -14.849811
##########       Grid_es:           -3.058678
##########    Int_energy:            1.424370

@<TRIPOS>MOLECULE
ligand
 24 24 1 0 0
SMALL
No Charge or Current Charge


@<TRIPOS>ATOM
      1 H1          8.6935    6.2869   23.4645 H       1  lig         0.1313
      2 H2          5.9987    7.6847   20.4610 H       1  lig         0.1473
      3 H3         10.5330    7.3294   22.2481 H       1  lig         0.1394
      4 H4          7.8602    8.6954   19.2000 H       1  lig         0.1574
      5 H5          6.1925    6.5523   23.8375 H       1  lig         0.1170
      6 H6          5.1361    6.7076   22.4711 H       1  lig         0.0678
      7 H7          6.7799    4.2597   23.2498 H       1  lig         0.0912
      8 H8          6.9933    4.6683   20.8544 H       1  lig         0.4249
      9 H9          5.9876    3.3631   21.0968 H       1  lig         0.4256
     10 H10         5.3363    4.8524   20.7137 H       1  lig         0.4835
     11 H11        10.0188    9.1183   19.3039 H       1  lig         0.4236
     12 C1          8.4976    6.8065   22.5286 C.ar    1  lig        -0.1098
     13 C2          7.0136    7.6011   20.8467 C.ar    1  lig        -0.0948
     14 C3          9.5265    7.3961   21.8472 C.ar    1  lig        -0.2079
     15 C4          8.0509    8.1660   20.1296 C.ar    1  lig        -0.1468
     16 C5          7.2357    6.9012   22.0270 C.ar    1  lig        -0.1510
     17 C6          9.3321    8.0385   20.6532 C.ar    1  lig         0.1263
     18 C7          4.6683    4.2828   23.2837 C.2     1  lig         0.9365
     19 C8          6.0850    6.2707   22.7880 C.3     1  lig        -0.0459
     20 C9          5.9789    4.7483   22.6920 C.3     1  lig        -0.0743
     21 N1          6.0939    4.3829   21.2806 N.4     1  lig        -0.8330
     22 O1          3.7478    4.1837   22.4754 O.co2   1  lig        -0.7110
     23 O2          4.5061    4.0419   24.5144 O.co2   1  lig        -0.8016
     24 O3         10.3363    8.5772   20.0852 O.3     1  lig        -0.4958
@<TRIPOS>BOND
     1    20    21    1
     2     8    21    1
     3     9    21    1
     4    10    21    1
     5    18    20    1
     6    19    20    1
     7     7    20    1
     8    18    23    1
     9    18    22    1
    10    16    19    1
    11     5    19    1
    12     6    19    1
    13    12    16   ar
    14    13    16   ar
    15    12    14   ar
    16     1    12    1
    17    13    15   ar
    18     2    13    1
    19    14    17   ar
    20     3    14    1
    21    15    17   ar
    22     4    15    1
    23    17    24    1
    24    11    24    1
@<TRIPOS>SUBSTRUCTURE
     1 lig         1 TEMP              0 ****  ****    0 ROOT


########## Name:		ligand
########## HA_RMSDs:		9.6148
########## HA_RMSDh:		9.5937
########## HA_RMSDm:		8.0762
########## Cluster Size:	1
##########    Grid Score:          -17.884222
##########      Grid_vdw:          -16.197811
##########       Grid_es:           -1.686410
##########    Int_energy:            1.332416

@<TRIPOS>MOLECULE
ligand
 24 24 1 0 0
SMALL
No Charge or Current Charge


@<TRIPOS>ATOM
      1 H1         13.0172   11.0719   25.8126 H       1  lig         0.1313
      2 H2         15.8662   12.2856   22.8720 H       1  lig         0.1473
      3 H3         13.7254   12.9369   27.2163 H       1  lig         0.1394
      4 H4         16.6227   14.1408   24.3082 H       1  lig         0.1574
      5 H5         14.8571    9.8453   23.0877 H       1  lig         0.1170
      6 H6         13.3617    9.6944   23.9527 H       1  lig         0.0678
      7 H7         13.8006   11.4177   21.4615 H       1  lig         0.0912
      8 H8         12.2553   12.4281   23.0556 H       1  lig         0.4249
      9 H9         11.3925   11.8420   21.7573 H       1  lig         0.4256
     10 H10        11.4157   10.9873   23.1918 H       1  lig         0.4835
     11 H11        16.4335   14.9300   26.4160 H       1  lig         0.4236
     12 C1         13.8121   11.7330   25.4732 C.ar    1  lig        -0.1098
     13 C2         15.4018   12.4316   23.8460 C.ar    1  lig        -0.0948
     14 C3         14.2076   12.7824   26.2562 C.ar    1  lig        -0.2079
     15 C4         15.8368   13.4708   24.6461 C.ar    1  lig        -0.1468
     16 C5         14.4130   11.5492   24.2658 C.ar    1  lig        -0.1510
     17 C6         15.2207   13.6251   25.8824 C.ar    1  lig         0.1263
     18 C7         12.8030    9.5597   21.3443 C.2     1  lig         0.9365
     19 C8         13.9646   10.4021   23.3803 C.3     1  lig        -0.0459
     20 C9         13.1919   10.7966   22.1212 C.3     1  lig        -0.0743
     21 N1         12.0183   11.5613   22.5413 N.4     1  lig        -0.8330
     22 O1         11.7038    9.0949   21.6380 O.co2   1  lig        -0.7110
     23 O2         13.5502    9.0153   20.4817 O.co2   1  lig        -0.8016
     24 O3         15.5223   14.5898   26.6569 O.3     1  lig        -0.4958
@<TRIPOS>BOND
     1    20    21    1
     2     8    21    1
     3     9    21    1
     4    10    21    1
     5    18    20    1
     6    19    20    1
     7     7    20    1
     8    18    23    1
     9    18    22    1
    10    16    19    1
    11     5    19    1
    12     6    19    1
    13    12    16   ar
    14    13    16   ar
    15    12    14   ar
    16     1    12    1
    17    13    15   ar
    18     2    13    1
    19    14    17   ar
    20     3    14    1
    21    15    17   ar
    22     4    15    1
    23    17    24    1
    24    11    24    1
@<TRIPOS>SUBSTRUCTURE
     1 lig         1 TEMP              0 ****  ****    0 ROOT


########## Name:		ligand
########## HA_RMSDs:		10.0009
########## HA_RMSDh:		9.8996
########## HA_RMSDm:		8.1804
########## Cluster Size:	1
##########    Grid Score:          -17.837639
##########      Grid_vdw:          -14.673354
##########       Grid_es:           -3.164285
##########    Int_energy:            1.654931

@<TRIPOS>MOLECULE
ligand
 24 24 1 0 0
SMALL
No Charge or Current Charge


@<TRIPOS>ATOM
      1 H1         18.0284   12.4863   23.9599 H       1  lig         0.1313
      2 H2         19.7392   13.8925   27.6113 H       1  lig         0.1473
      3 H3         15.9563   13.6414   24.5279 H       1  lig         0.1394
      4 H4         17.6310   15.0182   28.2158 H       1  lig         0.1574
      5 H5         20.8080   12.1500   26.3396 H       1  lig         0.1170
      6 H6         20.0954   11.4367   24.9287 H       1  lig         0.0678
      7 H7         20.7223   13.7501   23.7510 H       1  lig         0.0912
      8 H8         21.6487   11.5475   23.2609 H       1  lig         0.4249
      9 H9         22.8800   12.6689   23.2592 H       1  lig         0.4256
     10 H10        22.6776   11.6611   24.5754 H       1  lig         0.4835
     11 H11        15.2809   15.4775   25.7987 H       1  lig         0.4236
     12 C1         17.9532   13.0325   24.8981 C.ar    1  lig        -0.1098
     13 C2         18.8879   13.8328   26.9349 C.ar    1  lig        -0.0948
     14 C3         16.7942   13.6851   25.2166 C.ar    1  lig        -0.2079
     15 C4         17.7088   14.4623   27.2854 C.ar    1  lig        -0.1468
     16 C5         19.0044   13.0984   25.7603 C.ar    1  lig        -0.1510
     17 C6         16.6444   14.3635   26.3971 C.ar    1  lig         0.1263
     18 C7         22.0357   14.1847   25.3470 C.2     1  lig         0.9365
     19 C8         20.3016   12.3975   25.4044 C.3     1  lig        -0.0459
     20 C9         21.2622   13.1876   24.5149 C.3     1  lig        -0.0743
     21 N1         22.1499   12.2290   23.8579 N.4     1  lig        -0.8330
     22 O1         23.1449   13.7985   25.7090 O.co2   1  lig        -0.7110
     23 O2         21.5801   15.3161   25.6801 O.co2   1  lig        -0.8016
     24 O3         15.5411   14.9601   26.6165 O.3     1  lig        -0.4958
@<TRIPOS>BOND
     1    20    21    1
     2     8    21    1
     3     9    21    1
     4    10    21    1
     5    18    20    1
     6    19    20    1
     7     7    20    1
     8    18    23    1
     9    18    22    1
    10    16    19    1
    11     5    19    1
    12     6    19    1
    13    12    16   ar
    14    13    16   ar
    15    12    14   ar
    16     1    12    1
    17    13    15   ar
    18     2    13    1
    19    14    17   ar
    20     3    14    1
    21    15    17   ar
    22     4    15    1
    23    17    24    1
    24    11    24    1
@<TRIPOS>SUBSTRUCTURE
     1 lig         1 TEMP              0 ****  ****    0 ROOT


########## Name:		ligand
########## HA_RMSDs:		10.1464
########## HA_RMSDh:		10.1315
########## HA_RMSDm:		8.1992
########## Cluster Size:	3
##########    Grid Score:          -17.750946
##########      Grid_vdw:          -15.460534
##########       Grid_es:           -2.290412
##########    Int_energy:            1.049385

@<TRIPOS>MOLECULE
ligand
 24 24 1 0 0
SMALL
No Charge or Current Charge


@<TRIPOS>ATOM
      1 H1         19.6653   15.6048   28.0672 H       1  lig         0.1313
      2 H2         17.6528   13.4368   24.9872 H       1  lig         0.1473
      3 H3         17.6243   16.8848   28.4499 H       1  lig         0.1394
      4 H4         15.6035   14.7625   25.3334 H       1  lig         0.1574
      5 H5         20.3368   13.2011   27.2143 H       1  lig         0.1170
      6 H6         19.8445   12.7995   25.6007 H       1  lig         0.0678
      7 H7         21.0774   15.4948   25.7360 H       1  lig         0.0912
      8 H8         20.5989   14.2252   23.7089 H       1  lig         0.4249
      9 H9         22.2441   14.4516   23.8342 H       1  lig         0.4256
     10 H10        21.5774   12.9733   24.2331 H       1  lig         0.4835
     11 H11        15.7290   17.5991   27.2117 H       1  lig         0.4236
     12 C1         18.7845   15.4139   27.4573 C.ar    1  lig        -0.1098
     13 C2         17.6411   14.2143   25.7496 C.ar    1  lig        -0.0948
     14 C3         17.6374   16.1268   27.6732 C.ar    1  lig        -0.2079
     15 C4         16.4895   14.9558   25.9321 C.ar    1  lig        -0.1468
     16 C5         18.7931   14.4576   26.4887 C.ar    1  lig        -0.1510
     17 C6         16.5129   15.9393   26.9139 C.ar    1  lig         0.1263
     18 C7         22.4835   14.1269   26.5187 C.2     1  lig         0.9365
     19 C8         20.0535   13.6457   26.2580 C.3     1  lig        -0.0459
     20 C9         21.2484   14.4175   25.6971 C.3     1  lig        -0.0743
     21 N1         21.4216   14.0158   24.3017 N.4     1  lig        -0.8330
     22 O1         23.1889   13.2210   26.0802 O.co2   1  lig        -0.7110
     23 O2         22.7661   14.7351   27.5906 O.co2   1  lig        -0.8016
     24 O3         15.4777   16.6294   27.1849 O.3     1  lig        -0.4958
@<TRIPOS>BOND
     1    20    21    1
     2     8    21    1
     3     9    21    1
     4    10    21    1
     5    18    20    1
     6    19    20    1
     7     7    20    1
     8    18    23    1
     9    18    22    1
    10    16    19    1
    11     5    19    1
    12     6    19    1
    13    12    16   ar
    14    13    16   ar
    15    12    14   ar
    16     1    12    1
    17    13    15   ar
    18     2    13    1
    19    14    17   ar
    20     3    14    1
    21    15    17   ar
    22     4    15    1
    23    17    24    1
    24    11    24    1
@<TRIPOS>SUBSTRUCTURE
     1 lig         1 TEMP              0 ****  ****    0 ROOT


########## Name:		ligand
########## HA_RMSDs:		10.8956
########## HA_RMSDh:		10.8047
########## HA_RMSDm:		9.0368
########## Cluster Size:	3
##########    Grid Score:          -17.740799
##########      Grid_vdw:          -12.759430
##########       Grid_es:           -4.981369
##########    Int_energy:            2.333831

@<TRIPOS>MOLECULE
ligand
 24 24 1 0 0
SMALL
No Charge or Current Charge


@<TRIPOS>ATOM
      1 H1         12.8076   11.9317   24.5776 H       1  lig         0.1313
      2 H2         14.9344   13.5876   27.8899 H       1  lig         0.1473
      3 H3         10.7170   12.6584   25.6030 H       1  lig         0.1394
      4 H4         12.8220   14.2781   28.9565 H       1  lig         0.1574
      5 H5         15.9721   11.9402   26.3408 H       1  lig         0.1170
      6 H6         15.1473   11.3716   24.9252 H       1  lig         0.0678
      7 H7         15.3327   13.7705   23.9709 H       1  lig         0.0912
      8 H8         16.7761   11.9082   23.3397 H       1  lig         0.4249
      9 H9         17.6829   13.3037   23.4008 H       1  lig         0.4256
     10 H10        17.7703   12.2020   24.6529 H       1  lig         0.4835
     11 H11         9.7744   13.5532   27.1696 H       1  lig         0.4236
     12 C1         12.8249   12.4396   25.5398 C.ar    1  lig        -0.1098
     13 C2         13.9895   13.3751   27.3922 C.ar    1  lig        -0.0948
     14 C3         11.6544   12.8525   26.1145 C.ar    1  lig        -0.2079
     15 C4         12.8106   13.7610   28.0009 C.ar    1  lig        -0.1468
     16 C5         13.9986   12.6939   26.1804 C.ar    1  lig        -0.1510
     17 C6         11.6248   13.4723   27.3357 C.ar    1  lig         0.1263
     18 C7         16.5267   14.4299   25.5834 C.2     1  lig         0.9365
     19 C8         15.3033   12.2607   25.5393 C.3     1  lig        -0.0459
     20 C9         16.0135   13.3197   24.6953 C.3     1  lig        -0.0743
     21 N1         17.1009   12.6583   23.9751 N.4     1  lig        -0.8330
     22 O1         17.6198   14.2088   26.1000 O.co2   1  lig        -0.7110
     23 O2         15.8816   15.4929   25.8131 O.co2   1  lig        -0.8016
     24 O3         10.4982   13.8424   27.7994 O.3     1  lig        -0.4958
@<TRIPOS>BOND
     1    20    21    1
     2     8    21    1
     3     9    21    1
     4    10    21    1
     5    18    20    1
     6    19    20    1
     7     7    20    1
     8    18    23    1
     9    18    22    1
    10    16    19    1
    11     5    19    1
    12     6    19    1
    13    12    16   ar
    14    13    16   ar
    15    12    14   ar
    16     1    12    1
    17    13    15   ar
    18     2    13    1
    19    14    17   ar
    20     3    14    1
    21    15    17   ar
    22     4    15    1
    23    17    24    1
    24    11    24    1
@<TRIPOS>SUBSTRUCTURE
     1 lig         1 TEMP              0 ****  ****    0 ROOT


########## Name:		ligand
########## HA_RMSDs:		14.8154
########## HA_RMSDh:		14.7524
########## HA_RMSDm:		12.5411
########## Cluster Size:	1
##########    Grid Score:          -17.737642
##########      Grid_vdw:          -13.965369
##########       Grid_es:           -3.772274
##########    Int_energy:            3.126337

@<TRIPOS>MOLECULE
ligand
 24 24 1 0 0
SMALL
No Charge or Current Charge


@<TRIPOS>ATOM
      1 H1         26.2543    5.2036   13.0138 H       1  lig         0.1313
      2 H2         26.2393    8.8249   15.2772 H       1  lig         0.1473
      3 H3         24.3718    6.0505   11.7141 H       1  lig         0.1394
      4 H4         24.3037    9.6644   14.0022 H       1  lig         0.1574
      5 H5         27.4987    6.9201   16.0198 H       1  lig         0.1170
      6 H6         27.4172    5.3714   15.2437 H       1  lig         0.0678
      7 H7         28.8422    6.7544   13.3314 H       1  lig         0.0912
      8 H8         29.3857    4.6280   14.3958 H       1  lig         0.4249
      9 H9         30.7322    5.6079   14.4178 H       1  lig         0.4256
     10 H10        29.8221    5.4172   15.8051 H       1  lig         0.4835
     11 H11        23.3140    7.8223   11.1515 H       1  lig         0.4236
     12 C1         25.8331    6.1801   13.2447 C.ar    1  lig        -0.1098
     13 C2         25.8103    8.2087   14.4885 C.ar    1  lig        -0.0948
     14 C3         24.7808    6.6593   12.5142 C.ar    1  lig        -0.2079
     15 C4         24.7219    8.6857   13.7834 C.ar    1  lig        -0.1468
     16 C5         26.3489    6.9513   14.2407 C.ar    1  lig        -0.1510
     17 C6         24.2017    7.8707   12.7849 C.ar    1  lig         0.1263
     18 C7         29.4937    7.9680   14.9326 C.2     1  lig         0.9365
     19 C8         27.5312    6.4380   15.0406 C.3     1  lig        -0.0459
     20 C9         28.9078    6.6732   14.4180 C.3     1  lig        -0.0743
     21 N1         29.7505    5.5271   14.7569 N.4     1  lig        -0.8330
     22 O1         30.7221    8.0082   14.9373 O.co2   1  lig        -0.7110
     23 O2         28.7918    8.9298   15.3582 O.co2   1  lig        -0.8016
     24 O3         23.2356    8.2571   12.0509 O.3     1  lig        -0.4958
@<TRIPOS>BOND
     1    20    21    1
     2     8    21    1
     3     9    21    1
     4    10    21    1
     5    18    20    1
     6    19    20    1
     7     7    20    1
     8    18    23    1
     9    18    22    1
    10    16    19    1
    11     5    19    1
    12     6    19    1
    13    12    16   ar
    14    13    16   ar
    15    12    14   ar
    16     1    12    1
    17    13    15   ar
    18     2    13    1
    19    14    17   ar
    20     3    14    1
    21    15    17   ar
    22     4    15    1
    23    17    24    1
    24    11    24    1
@<TRIPOS>SUBSTRUCTURE
     1 lig         1 TEMP              0 ****  ****    0 ROOT


########## Name:		ligand
########## HA_RMSDs:		10.4867
########## HA_RMSDh:		10.4341
########## HA_RMSDm:		9.0596
########## Cluster Size:	1
##########    Grid Score:          -17.726103
##########      Grid_vdw:          -16.415428
##########       Grid_es:           -1.310675
##########    Int_energy:            2.252483

@<TRIPOS>MOLECULE
ligand
 24 24 1 0 0
SMALL
No Charge or Current Charge


@<TRIPOS>ATOM
      1 H1         12.6920   10.4064   24.4579 H       1  lig         0.1313
      2 H2         14.5256    8.7631   20.9686 H       1  lig         0.1473
      3 H3         10.5950   10.5901   23.2253 H       1  lig         0.1394
      4 H4         12.4234    8.9949   19.7022 H       1  lig         0.1574
      5 H5         14.8559    9.7753   24.5782 H       1  lig         0.1170
      6 H6         15.3384    8.4117   23.6216 H       1  lig         0.0678
      7 H7         16.2137   10.2865   21.9077 H       1  lig         0.0912
      8 H8         17.5437    8.6268   23.1022 H       1  lig         0.4249
      9 H9         18.3280   10.0950   23.1566 H       1  lig         0.4256
     10 H10        17.4906    9.5517   24.4955 H       1  lig         0.4835
     11 H11        10.3744    9.9007   19.8372 H       1  lig         0.4236
     12 C1         12.6487   10.0988   23.4149 C.ar    1  lig        -0.1098
     13 C2         13.6478    9.1790   21.4608 C.ar    1  lig        -0.0948
     14 C3         11.4729   10.1962   22.7231 C.ar    1  lig        -0.2079
     15 C4         12.4758    9.3103   20.7407 C.ar    1  lig        -0.1468
     16 C5         13.7444    9.5950   22.7837 C.ar    1  lig        -0.1510
     17 C6         11.3770    9.8455   21.4025 C.ar    1  lig         0.1263
     18 C7         16.1563   11.6903   23.4846 C.2     1  lig         0.9365
     19 C8         15.0467    9.4612   23.5500 C.3     1  lig        -0.0459
     20 C9         16.2278   10.2608   22.9988 C.3     1  lig        -0.0743
     21 N1         17.4559    9.6013   23.4409 N.4     1  lig        -0.8330
     22 O1         17.2429   12.1901   23.7677 O.co2   1  lig        -0.7110
     23 O2         15.0717   12.3248   23.6255 O.co2   1  lig        -0.8016
     24 O3         10.2445    9.9489   20.8296 O.3     1  lig        -0.4958
@<TRIPOS>BOND
     1    20    21    1
     2     8    21    1
     3     9    21    1
     4    10    21    1
     5    18    20    1
     6    19    20    1
     7     7    20    1
     8    18    23    1
     9    18    22    1
    10    16    19    1
    11     5    19    1
    12     6    19    1
    13    12    16   ar
    14    13    16   ar
    15    12    14   ar
    16     1    12    1
    17    13    15   ar
    18     2    13    1
    19    14    17   ar
    20     3    14    1
    21    15    17   ar
    22     4    15    1
    23    17    24    1
    24    11    24    1
@<TRIPOS>SUBSTRUCTURE
     1 lig         1 TEMP              0 ****  ****    0 ROOT


########## Name:		ligand
########## HA_RMSDs:		10.8782
########## HA_RMSDh:		10.8556
########## HA_RMSDm:		8.5190
########## Cluster Size:	3
##########    Grid Score:          -17.725685
##########      Grid_vdw:          -14.661640
##########       Grid_es:           -3.064045
##########    Int_energy:            1.651477

@<TRIPOS>MOLECULE
ligand
 24 24 1 0 0
SMALL
No Charge or Current Charge


@<TRIPOS>ATOM
      1 H1         13.8075   16.8045   27.9014 H       1  lig         0.1313
      2 H2         17.8771   17.9714   27.3418 H       1  lig         0.1473
      3 H3         13.6633   18.3440   29.7881 H       1  lig         0.1394
      4 H4         17.7533   19.4899   29.2797 H       1  lig         0.1574
      5 H5         14.9582   15.8964   26.1851 H       1  lig         0.1170
      6 H6         16.1527   16.8931   25.4190 H       1  lig         0.0678
      7 H7         17.9816   15.6011   26.5953 H       1  lig         0.0912
      8 H8         17.1718   14.9892   24.3771 H       1  lig         0.4249
      9 H9         17.5677   13.6045   25.2136 H       1  lig         0.4256
     10 H10        15.9653   14.0462   25.0512 H       1  lig         0.4835
     11 H11        16.2087   20.5088   30.5896 H       1  lig         0.4236
     12 C1         14.6812   17.3824   28.1961 C.ar    1  lig        -0.1098
     13 C2         16.9451   18.0526   27.8989 C.ar    1  lig        -0.0948
     14 C3         14.6015   18.2500   29.2505 C.ar    1  lig        -0.2079
     15 C4         16.8875   18.9022   28.9872 C.ar    1  lig        -0.1468
     16 C5         15.8571   17.2752   27.5189 C.ar    1  lig        -0.1510
     17 C6         15.6813   18.9788   29.6735 C.ar    1  lig         0.1263
     18 C7         16.6565   14.3478   27.6603 C.2     1  lig         0.9365
     19 C8         15.9479   16.3332   26.3335 C.3     1  lig        -0.0459
     20 C9         16.9735   15.2058   26.4570 C.3     1  lig        -0.0743
     21 N1         16.9347   14.4318   25.2168 N.4     1  lig        -0.8330
     22 O1         17.4975   14.3902   28.5555 O.co2   1  lig        -0.7110
     23 O2         15.6298   13.6143   27.7418 O.co2   1  lig        -0.8016
     24 O3         15.5260   19.7780   30.6526 O.3     1  lig        -0.4958
@<TRIPOS>BOND
     1    20    21    1
     2     8    21    1
     3     9    21    1
     4    10    21    1
     5    18    20    1
     6    19    20    1
     7     7    20    1
     8    18    23    1
     9    18    22    1
    10    16    19    1
    11     5    19    1
    12     6    19    1
    13    12    16   ar
    14    13    16   ar
    15    12    14   ar
    16     1    12    1
    17    13    15   ar
    18     2    13    1
    19    14    17   ar
    20     3    14    1
    21    15    17   ar
    22     4    15    1
    23    17    24    1
    24    11    24    1
@<TRIPOS>SUBSTRUCTURE
     1 lig         1 TEMP              0 ****  ****    0 ROOT


########## Name:		ligand
########## HA_RMSDs:		16.9113
########## HA_RMSDh:		16.8600
########## HA_RMSDm:		14.5274
########## Cluster Size:	1
##########    Grid Score:          -17.635914
##########      Grid_vdw:          -16.424772
##########       Grid_es:           -1.211142
##########    Int_energy:            2.332199

@<TRIPOS>MOLECULE
ligand
 24 24 1 0 0
SMALL
No Charge or Current Charge


@<TRIPOS>ATOM
      1 H1          5.8957    6.4583   22.1494 H       1  lig         0.1313
      2 H2          8.8618    3.6046   21.0112 H       1  lig         0.1473
      3 H3          4.2100    4.6991   22.0322 H       1  lig         0.1394
      4 H4          7.1548    1.8343   20.8401 H       1  lig         0.1574
      5 H5          8.3673    6.7770   22.5853 H       1  lig         0.1170
      6 H6          9.5270    5.7880   21.7580 H       1  lig         0.0678
      7 H7          8.2939    6.7471   19.5527 H       1  lig         0.0912
      8 H8         10.6316    7.0133   20.1966 H       1  lig         0.4249
      9 H9         10.0467    8.4746   19.6524 H       1  lig         0.4256
     10 H10        10.2189    8.2086   21.2921 H       1  lig         0.4835
     11 H11         4.9861    1.4600   21.0086 H       1  lig         0.4236
     12 C1          6.1844    5.4510   21.8557 C.ar    1  lig        -0.1098
     13 C2          7.8212    3.8423   21.2268 C.ar    1  lig        -0.0948
     14 C3          5.2420    4.4618   21.7940 C.ar    1  lig        -0.2079
     15 C4          6.8711    2.8445   21.1224 C.ar    1  lig        -0.1468
     16 C5          7.4789    5.1463   21.5656 C.ar    1  lig        -0.1510
     17 C6          5.5537    3.1860   21.4048 C.ar    1  lig         0.1263
     18 C7          7.5630    8.3345   20.7388 C.2     1  lig         0.9365
     19 C8          8.5349    6.2317   21.6542 C.3     1  lig        -0.0459
     20 C9          8.5635    7.2281   20.4948 C.3     1  lig        -0.0743
     21 N1          9.9266    7.7470   20.3881 N.4     1  lig        -0.8330
     22 O1          6.8186    8.5704   19.7897 O.co2   1  lig        -0.7110
     23 O2          7.5045    8.9960   21.8148 O.co2   1  lig        -0.8016
     24 O3          4.6253    2.3148   21.3872 O.3     1  lig        -0.4958
@<TRIPOS>BOND
     1    20    21    1
     2     8    21    1
     3     9    21    1
     4    10    21    1
     5    18    20    1
     6    19    20    1
     7     7    20    1
     8    18    23    1
     9    18    22    1
    10    16    19    1
    11     5    19    1
    12     6    19    1
    13    12    16   ar
    14    13    16   ar
    15    12    14   ar
    16     1    12    1
    17    13    15   ar
    18     2    13    1
    19    14    17   ar
    20     3    14    1
    21    15    17   ar
    22     4    15    1
    23    17    24    1
    24    11    24    1
@<TRIPOS>SUBSTRUCTURE
     1 lig         1 TEMP              0 ****  ****    0 ROOT


########## Name:		ligand
########## HA_RMSDs:		11.7763
########## HA_RMSDh:		11.7018
########## HA_RMSDm:		9.9596
########## Cluster Size:	2
##########    Grid Score:          -17.631172
##########      Grid_vdw:          -17.907484
##########       Grid_es:            0.276313
##########    Int_energy:            2.860163

@<TRIPOS>MOLECULE
ligand
 24 24 1 0 0
SMALL
No Charge or Current Charge


@<TRIPOS>ATOM
      1 H1         13.8643   11.5476   23.9974 H       1  lig         0.1313
      2 H2         10.2425   10.5973   21.9440 H       1  lig         0.1473
      3 H3         15.0687   10.0571   22.4879 H       1  lig         0.1394
      4 H4         11.4453    9.0497   20.4491 H       1  lig         0.1574
      5 H5         11.9593   12.7443   24.4716 H       1  lig         0.1170
      6 H6         10.5762   12.7489   23.4254 H       1  lig         0.0678
      7 H7         10.3206   12.0498   25.9838 H       1  lig         0.0912
      8 H8         12.0119   10.2994   25.8242 H       1  lig         0.4249
      9 H9         10.5385    9.6033   26.1679 H       1  lig         0.4256
     10 H10        11.1444    9.5379   24.6130 H       1  lig         0.4835
     11 H11        14.8904    8.4424   21.1211 H       1  lig         0.4236
     12 C1         13.3211   11.0021   23.2282 C.ar    1  lig        -0.1098
     13 C2         11.3163   10.4630   22.0651 C.ar    1  lig        -0.0948
     14 C3         13.9948   10.1697   22.3774 C.ar    1  lig        -0.2079
     15 C4         11.9805    9.5889   21.2260 C.ar    1  lig        -0.1468
     16 C5         11.9759   11.1475   23.0794 C.ar    1  lig        -0.1510
     17 C6         13.3503    9.4435   21.4112 C.ar    1  lig         0.1263
     18 C7          8.9819   11.1810   24.6004 C.2     1  lig         0.9365
     19 C8         11.2240   12.0868   24.0032 C.3     1  lig        -0.0459
     20 C9         10.3899   11.4180   25.0964 C.3     1  lig        -0.0743
     21 N1         11.0529   10.1656   25.4577 N.4     1  lig        -0.8330
     22 O1          8.7625   10.0367   24.2091 O.co2   1  lig        -0.7110
     23 O2          8.0982   12.0842   24.5543 O.co2   1  lig        -0.8016
     24 O3         14.0471    8.7017   20.6460 O.3     1  lig        -0.4958
@<TRIPOS>BOND
     1    20    21    1
     2     8    21    1
     3     9    21    1
     4    10    21    1
     5    18    20    1
     6    19    20    1
     7     7    20    1
     8    18    23    1
     9    18    22    1
    10    16    19    1
    11     5    19    1
    12     6    19    1
    13    12    16   ar
    14    13    16   ar
    15    12    14   ar
    16     1    12    1
    17    13    15   ar
    18     2    13    1
    19    14    17   ar
    20     3    14    1
    21    15    17   ar
    22     4    15    1
    23    17    24    1
    24    11    24    1
@<TRIPOS>SUBSTRUCTURE
     1 lig         1 TEMP              0 ****  ****    0 ROOT


########## Name:		ligand
########## HA_RMSDs:		12.1258
########## HA_RMSDh:		12.0738
########## HA_RMSDm:		10.0538
########## Cluster Size:	1
##########    Grid Score:          -17.623615
##########      Grid_vdw:          -14.557178
##########       Grid_es:           -3.066436
##########    Int_energy:            1.370342

@<TRIPOS>MOLECULE
ligand
 24 24 1 0 0
SMALL
No Charge or Current Charge


@<TRIPOS>ATOM
      1 H1         10.6481    6.9364   23.4926 H       1  lig         0.1313
      2 H2         12.5223   10.1749   21.4342 H       1  lig         0.1473
      3 H3          8.9160    6.8949   21.7756 H       1  lig         0.1394
      4 H4         10.7465   10.1725   19.7244 H       1  lig         0.1574
      5 H5         13.1275    9.6199   23.7207 H       1  lig         0.1170
      6 H6         12.3529    8.3541   24.6180 H       1  lig         0.0678
      7 H7         13.6676    6.7938   22.7995 H       1  lig         0.0912
      8 H8         13.7840    6.7068   25.2344 H       1  lig         0.4249
      9 H9         15.3271    6.6339   24.6124 H       1  lig         0.4256
     10 H10        14.7606    8.0650   25.2604 H       1  lig         0.4835
     11 H11         9.0802    8.8603   18.9528 H       1  lig         0.4236
     12 C1         10.6788    7.6548   22.6757 C.ar    1  lig        -0.1098
     13 C2         11.7093    9.4542   21.5084 C.ar    1  lig        -0.0948
     14 C3          9.7115    7.6304   21.7091 C.ar    1  lig        -0.2079
     15 C4         10.7156    9.4647   20.5483 C.ar    1  lig        -0.1468
     16 C5         11.6797    8.5725   22.5827 C.ar    1  lig        -0.1510
     17 C6          9.6945    8.5305   20.6768 C.ar    1  lig         0.1263
     18 C7         15.0163    8.4040   22.5780 C.2     1  lig         0.9365
     19 C8         12.7698    8.5916   23.6374 C.3     1  lig        -0.0459
     20 C9         13.9630    7.6715   23.3772 C.3     1  lig        -0.0743
     21 N1         14.4774    7.2332   24.6741 N.4     1  lig        -0.8330
     22 O1         15.8248    9.0362   23.2541 O.co2   1  lig        -0.7110
     23 O2         15.0573    8.4037   21.3142 O.co2   1  lig        -0.8016
     24 O3          8.7706    8.4352   19.8058 O.3     1  lig        -0.4958
@<TRIPOS>BOND
     1    20    21    1
     2     8    21    1
     3     9    21    1
     4    10    21    1
     5    18    20    1
     6    19    20    1
     7     7    20    1
     8    18    23    1
     9    18    22    1
    10    16    19    1
    11     5    19    1
    12     6    19    1
    13    12    16   ar
    14    13    16   ar
    15    12    14   ar
    16     1    12    1
    17    13    15   ar
    18     2    13    1
    19    14    17   ar
    20     3    14    1
    21    15    17   ar
    22     4    15    1
    23    17    24    1
    24    11    24    1
@<TRIPOS>SUBSTRUCTURE
     1 lig         1 TEMP              0 ****  ****    0 ROOT


########## Name:		ligand
########## HA_RMSDs:		12.0550
########## HA_RMSDh:		11.9856
########## HA_RMSDm:		10.1063
########## Cluster Size:	3
##########    Grid Score:          -17.575846
##########      Grid_vdw:          -15.880577
##########       Grid_es:           -1.695269
##########    Int_energy:            1.632095

@<TRIPOS>MOLECULE
ligand
 24 24 1 0 0
SMALL
No Charge or Current Charge


@<TRIPOS>ATOM
      1 H1         12.4716    9.9989   20.7686 H       1  lig         0.1313
      2 H2          9.1540   10.4218   23.4242 H       1  lig         0.1473
      3 H3         11.0937    8.5917   19.3293 H       1  lig         0.1394
      4 H4          7.7727    8.9579   22.0008 H       1  lig         0.1574
      5 H5         12.6649   11.4095   22.5379 H       1  lig         0.1170
      6 H6         11.2546   12.1281   23.2466 H       1  lig         0.0678
      7 H7         11.2500   10.2310   24.9861 H       1  lig         0.0912
      8 H8         12.1567   12.4592   25.3899 H       1  lig         0.4249
      9 H9         13.1134   11.3341   26.1597 H       1  lig         0.4256
     10 H10        13.6228   12.0104   24.7202 H       1  lig         0.4835
     11 H11         8.8964    8.2446   18.8289 H       1  lig         0.4236
     12 C1         11.4456    9.7742   21.0535 C.ar    1  lig        -0.1098
     13 C2          9.5817   10.0013   22.5153 C.ar    1  lig        -0.0948
     14 C3         10.6694    8.9896   20.2457 C.ar    1  lig        -0.2079
     15 C4          8.8012    9.1772   21.7272 C.ar    1  lig        -0.1468
     16 C5         10.9060   10.2789   22.1967 C.ar    1  lig        -0.1510
     17 C6          9.3818    8.6590   20.5756 C.ar    1  lig         0.1263
     18 C7         13.0490    9.3960   24.2601 C.2     1  lig         0.9365
     19 C8         11.7520   11.1694   23.0868 C.3     1  lig        -0.0459
     20 C9         12.1314   10.5825   24.4468 C.3     1  lig        -0.0743
     21 N1         12.7712   11.6423   25.2254 N.4     1  lig        -0.8330
     22 O1         14.2423    9.6789   24.1795 O.co2   1  lig        -0.7110
     23 O2         12.6362    8.2050   24.1602 O.co2   1  lig        -0.8016
     24 O3          8.7158    7.9371   19.7653 O.3     1  lig        -0.4958
@<TRIPOS>BOND
     1    20    21    1
     2     8    21    1
     3     9    21    1
     4    10    21    1
     5    18    20    1
     6    19    20    1
     7     7    20    1
     8    18    23    1
     9    18    22    1
    10    16    19    1
    11     5    19    1
    12     6    19    1
    13    12    16   ar
    14    13    16   ar
    15    12    14   ar
    16     1    12    1
    17    13    15   ar
    18     2    13    1
    19    14    17   ar
    20     3    14    1
    21    15    17   ar
    22     4    15    1
    23    17    24    1
    24    11    24    1
@<TRIPOS>SUBSTRUCTURE
     1 lig         1 TEMP              0 ****  ****    0 ROOT


########## Name:		ligand
########## HA_RMSDs:		9.2419
########## HA_RMSDh:		9.1671
########## HA_RMSDm:		7.3154
########## Cluster Size:	1
##########    Grid Score:          -17.564911
##########      Grid_vdw:          -15.263299
##########       Grid_es:           -2.301611
##########    Int_energy:            1.957792

@<TRIPOS>MOLECULE
ligand
 24 24 1 0 0
SMALL
No Charge or Current Charge


@<TRIPOS>ATOM
      1 H1         15.9043   13.2270   22.5905 H       1  lig         0.1313
      2 H2         15.3765   10.9341   26.1543 H       1  lig         0.1473
      3 H3         16.4539   15.1671   23.9632 H       1  lig         0.1394
      4 H4         15.8797   12.9042   27.5479 H       1  lig         0.1574
      5 H5         14.3475   10.3053   23.8408 H       1  lig         0.1170
      6 H6         15.0032   11.0566   22.4220 H       1  lig         0.0678
      7 H7         16.4114    9.1193   24.3032 H       1  lig         0.0912
      8 H8         17.8788   11.0218   23.8818 H       1  lig         0.4249
      9 H9         18.4306    9.7072   23.0210 H       1  lig         0.4256
     10 H10        17.5845   10.9156   22.2382 H       1  lig         0.4835
     11 H11        16.8100   15.9253   25.8249 H       1  lig         0.4236
     12 C1         15.8895   13.1438   23.6754 C.ar    1  lig        -0.1098
     13 C2         15.6073   11.8839   25.6743 C.ar    1  lig        -0.0948
     14 C3         16.2021   14.2288   24.4473 C.ar    1  lig        -0.2079
     15 C4         15.8824   12.9838   26.4643 C.ar    1  lig        -0.1468
     16 C5         15.5841   11.9667   24.2869 C.ar    1  lig        -0.1510
     17 C6         16.1720   14.1785   25.8157 C.ar    1  lig         0.1263
     18 C7         16.0280    8.6903   22.2710 C.2     1  lig         0.9365
     19 C8         15.2592   10.7518   23.4386 C.3     1  lig        -0.0459
     20 C9         16.3469    9.6795   23.3685 C.3     1  lig        -0.0743
     21 N1         17.6224   10.3548   23.1325 N.4     1  lig        -0.8330
     22 O1         17.0118    8.1829   21.7370 O.co2   1  lig        -0.7110
     23 O2         14.8506    8.4196   21.8977 O.co2   1  lig        -0.8016
     24 O3         16.4911   15.2251   26.4670 O.3     1  lig        -0.4958
@<TRIPOS>BOND
     1    20    21    1
     2     8    21    1
     3     9    21    1
     4    10    21    1
     5    18    20    1
     6    19    20    1
     7     7    20    1
     8    18    23    1
     9    18    22    1
    10    16    19    1
    11     5    19    1
    12     6    19    1
    13    12    16   ar
    14    13    16   ar
    15    12    14   ar
    16     1    12    1
    17    13    15   ar
    18     2    13    1
    19    14    17   ar
    20     3    14    1
    21    15    17   ar
    22     4    15    1
    23    17    24    1
    24    11    24    1
@<TRIPOS>SUBSTRUCTURE
     1 lig         1 TEMP              0 ****  ****    0 ROOT


########## Name:		ligand
########## HA_RMSDs:		10.8338
########## HA_RMSDh:		10.7717
########## HA_RMSDm:		9.4474
########## Cluster Size:	1
##########    Grid Score:          -17.547401
##########      Grid_vdw:          -15.054822
##########       Grid_es:           -2.492579
##########    Int_energy:            2.275769

@<TRIPOS>MOLECULE
ligand
 24 24 1 0 0
SMALL
No Charge or Current Charge


@<TRIPOS>ATOM
      1 H1         10.1713   11.0857   24.1082 H       1  lig         0.1313
      2 H2         14.1436   11.2711   25.6649 H       1  lig         0.1473
      3 H3          9.5278   12.8753   25.6358 H       1  lig         0.1394
      4 H4         13.4870   13.0435   27.2473 H       1  lig         0.1574
      5 H5         13.3871    9.3687   24.3330 H       1  lig         0.1170
      6 H6         11.7777    9.2511   23.6979 H       1  lig         0.0678
      7 H7         13.9880   11.0478   22.5759 H       1  lig         0.0912
      8 H8         11.7626   12.0302   22.3960 H       1  lig         0.4249
      9 H9         12.2555   11.5187   20.8897 H       1  lig         0.4256
     10 H10        11.1591   10.6060   21.7580 H       1  lig         0.4835
     11 H11        11.8277   14.4637   27.6828 H       1  lig         0.4236
     12 C1         10.9063   11.5016   24.7945 C.ar    1  lig        -0.1098
     13 C2         13.1145   11.6271   25.6723 C.ar    1  lig        -0.0948
     14 C3         10.5493   12.5085   25.6486 C.ar    1  lig        -0.2079
     15 C4         12.7550   12.6168   26.5670 C.ar    1  lig        -0.1468
     16 C5         12.1909   11.0516   24.8074 C.ar    1  lig        -0.1510
     17 C6         11.4328   13.0450   26.5473 C.ar    1  lig         0.1263
     18 C7         13.4923    9.2212   21.6387 C.2     1  lig         0.9365
     19 C8         12.6018    9.9515   23.8473 C.3     1  lig        -0.0459
     20 C9         13.1035   10.4156   22.4795 C.3     1  lig        -0.0743
     21 N1         12.0334   11.1911   21.8533 N.4     1  lig        -0.8330
     22 O1         13.1291    9.2802   20.4660 O.co2   1  lig        -0.7110
     23 O2         14.1126    8.2190   22.0967 O.co2   1  lig        -0.8016
     24 O3         11.0317   13.9910   27.2992 O.3     1  lig        -0.4958
@<TRIPOS>BOND
     1    20    21    1
     2     8    21    1
     3     9    21    1
     4    10    21    1
     5    18    20    1
     6    19    20    1
     7     7    20    1
     8    18    23    1
     9    18    22    1
    10    16    19    1
    11     5    19    1
    12     6    19    1
    13    12    16   ar
    14    13    16   ar
    15    12    14   ar
    16     1    12    1
    17    13    15   ar
    18     2    13    1
    19    14    17   ar
    20     3    14    1
    21    15    17   ar
    22     4    15    1
    23    17    24    1
    24    11    24    1
@<TRIPOS>SUBSTRUCTURE
     1 lig         1 TEMP              0 ****  ****    0 ROOT


########## Name:		ligand
########## HA_RMSDs:		14.2403
########## HA_RMSDh:		14.1591
########## HA_RMSDm:		11.0494
########## Cluster Size:	1
##########    Grid Score:          -17.419502
##########      Grid_vdw:          -18.177469
##########       Grid_es:            0.757966
##########    Int_energy:            2.894496

@<TRIPOS>MOLECULE
ligand
 24 24 1 0 0
SMALL
No Charge or Current Charge


@<TRIPOS>ATOM
      1 H1         14.5511   22.7996   31.2992 H       1  lig         0.1313
      2 H2         17.8558   20.1924   30.5790 H       1  lig         0.1473
      3 H3         13.0857   21.1856   30.2047 H       1  lig         0.1394
      4 H4         16.3891   18.5815   29.4255 H       1  lig         0.1574
      5 H5         16.5942   23.1944   32.3583 H       1  lig         0.1170
      6 H6         17.9175   22.0740   32.3288 H       1  lig         0.0678
      7 H7         18.3710   24.4036   31.3143 H       1  lig         0.0912
      8 H8         16.2629   24.5236   30.0930 H       1  lig         0.4249
      9 H9         17.5253   24.6204   29.0112 H       1  lig         0.4256
     10 H10        16.6869   23.1862   29.1815 H       1  lig         0.4835
     11 H11        12.8809   19.2222   29.5179 H       1  lig         0.4236
     12 C1         14.9679   21.8822   30.8882 C.ar    1  lig        -0.1098
     13 C2         16.7934   20.4108   30.4819 C.ar    1  lig        -0.0948
     14 C3         14.1476   20.9734   30.2784 C.ar    1  lig        -0.2079
     15 C4         15.9806   19.5042   29.8286 C.ar    1  lig        -0.1468
     16 C5         16.2973   21.6072   30.9869 C.ar    1  lig        -0.1510
     17 C6         14.6305   19.8177   29.7240 C.ar    1  lig         0.1263
     18 C7         19.1856   22.8189   30.1804 C.2     1  lig         0.9365
     19 C8         17.2109   22.5984   31.6825 C.3     1  lig        -0.0459
     20 C9         17.9925   23.5395   30.7652 C.3     1  lig        -0.0743
     21 N1         17.0785   24.0045   29.7226 N.4     1  lig        -0.8330
     22 O1         19.1917   22.7506   28.9532 O.co2   1  lig        -0.7110
     23 O2         20.0961   22.2943   30.8837 O.co2   1  lig        -0.8016
     24 O3         13.8032   19.0123   29.1872 O.3     1  lig        -0.4958
@<TRIPOS>BOND
     1    20    21    1
     2     8    21    1
     3     9    21    1
     4    10    21    1
     5    18    20    1
     6    19    20    1
     7     7    20    1
     8    18    23    1
     9    18    22    1
    10    16    19    1
    11     5    19    1
    12     6    19    1
    13    12    16   ar
    14    13    16   ar
    15    12    14   ar
    16     1    12    1
    17    13    15   ar
    18     2    13    1
    19    14    17   ar
    20     3    14    1
    21    15    17   ar
    22     4    15    1
    23    17    24    1
    24    11    24    1
@<TRIPOS>SUBSTRUCTURE
     1 lig         1 TEMP              0 ****  ****    0 ROOT


########## Name:		ligand
########## HA_RMSDs:		12.8793
########## HA_RMSDh:		12.8031
########## HA_RMSDm:		8.9914
########## Cluster Size:	1
##########    Grid Score:          -17.356762
##########      Grid_vdw:          -14.020774
##########       Grid_es:           -3.335987
##########    Int_energy:            2.121062

@<TRIPOS>MOLECULE
ligand
 24 24 1 0 0
SMALL
No Charge or Current Charge


@<TRIPOS>ATOM
      1 H1         18.8768   17.3469   28.6954 H       1  lig         0.1313
      2 H2         14.9323   18.8290   29.3891 H       1  lig         0.1473
      3 H3         17.9984   15.9556   26.8945 H       1  lig         0.1394
      4 H4         14.0300   17.3865   27.6053 H       1  lig         0.1574
      5 H5         16.7763   19.0179   31.0961 H       1  lig         0.1170
      6 H6         18.4119   18.6060   30.6930 H       1  lig         0.0678
      7 H7         17.6680   20.6472   28.8213 H       1  lig         0.0912
      8 H8         19.8545   20.2053   29.8083 H       1  lig         0.4249
      9 H9         19.4312   21.7878   30.1087 H       1  lig         0.4256
     10 H10        19.2884   20.6466   31.3196 H       1  lig         0.4835
     11 H11        16.3917   15.3354   25.8105 H       1  lig         0.4236
     12 C1         17.8121   17.3610   28.4710 C.ar    1  lig        -0.1098
     13 C2         15.6069   18.1778   28.8353 C.ar    1  lig        -0.0948
     14 C3         17.3178   16.5856   27.4585 C.ar    1  lig        -0.2079
     15 C4         15.0906   17.3688   27.8412 C.ar    1  lig        -0.1468
     16 C5         16.9562   18.1568   29.1689 C.ar    1  lig        -0.1510
     17 C6         15.9822   16.5513   27.1567 C.ar    1  lig         0.1263
     18 C7         16.7862   21.4047   30.5847 C.2     1  lig         0.9365
     19 C8         17.4991   19.0378   30.2780 C.3     1  lig        -0.0459
     20 C9         17.7757   20.4925   29.8965 C.3     1  lig        -0.0743
     21 N1         19.1522   20.7995   30.2833 N.4     1  lig        -0.8330
     22 O1         17.2827   22.4053   31.0973 O.co2   1  lig        -0.7110
     23 O2         15.5488   21.1569   30.6642 O.co2   1  lig        -0.8016
     24 O3         15.5989   15.8169   26.1897 O.3     1  lig        -0.4958
@<TRIPOS>BOND
     1    20    21    1
     2     8    21    1
     3     9    21    1
     4    10    21    1
     5    18    20    1
     6    19    20    1
     7     7    20    1
     8    18    23    1
     9    18    22    1
    10    16    19    1
    11     5    19    1
    12     6    19    1
    13    12    16   ar
    14    13    16   ar
    15    12    14   ar
    16     1    12    1
    17    13    15   ar
    18     2    13    1
    19    14    17   ar
    20     3    14    1
    21    15    17   ar
    22     4    15    1
    23    17    24    1
    24    11    24    1
@<TRIPOS>SUBSTRUCTURE
     1 lig         1 TEMP              0 ****  ****    0 ROOT


########## Name:		ligand
########## HA_RMSDs:		12.0084
########## HA_RMSDh:		11.9597
########## HA_RMSDm:		9.9301
########## Cluster Size:	3
##########    Grid Score:          -17.299492
##########      Grid_vdw:          -14.258625
##########       Grid_es:           -3.040867
##########    Int_energy:            1.920615

@<TRIPOS>MOLECULE
ligand
 24 24 1 0 0
SMALL
No Charge or Current Charge


@<TRIPOS>ATOM
      1 H1          9.2735   12.5558   25.9405 H       1  lig         0.1313
      2 H2         13.3424   12.1718   24.7021 H       1  lig         0.1473
      3 H3         10.0369   12.8240   28.2417 H       1  lig         0.1394
      4 H4         14.1172   12.3897   27.0322 H       1  lig         0.1574
      5 H5          9.7820   12.5878   23.6854 H       1  lig         0.1170
      6 H6         11.3949   12.7988   23.0844 H       1  lig         0.0678
      7 H7         11.3671   10.0769   23.8230 H       1  lig         0.0912
      8 H8         12.3416   11.1203   21.8451 H       1  lig         0.4249
      9 H9         11.3595    9.8623   21.3693 H       1  lig         0.4256
     10 H10        10.8175   11.4359   21.2310 H       1  lig         0.4835
     11 H11        13.2878   12.2935   29.1845 H       1  lig         0.4236
     12 C1         10.3371   12.5116   26.1663 C.ar    1  lig        -0.1098
     13 C2         12.6119   12.3069   25.4983 C.ar    1  lig        -0.0948
     14 C3         10.7680   12.6667   27.4550 C.ar    1  lig        -0.2079
     15 C4         13.0558   12.4222   26.8017 C.ar    1  lig        -0.1468
     16 C5         11.2583   12.3244   25.1819 C.ar    1  lig        -0.1510
     17 C6         12.0940   12.5930   27.7905 C.ar    1  lig         0.1263
     18 C7          9.3623   10.2170   23.1733 C.2     1  lig         0.9365
     19 C8         10.7912   12.1752   23.7465 C.3     1  lig        -0.0459
     20 C9         10.7772   10.7485   23.1965 C.3     1  lig        -0.0743
     21 N1         11.3629   10.7827   21.8570 N.4     1  lig        -0.8330
     22 O1          9.0595    9.6111   22.1478 O.co2   1  lig        -0.7110
     23 O2          8.5339   10.4003   24.1108 O.co2   1  lig        -0.8016
     24 O3         12.4203   12.7634   29.0094 O.3     1  lig        -0.4958
@<TRIPOS>BOND
     1    20    21    1
     2     8    21    1
     3     9    21    1
     4    10    21    1
     5    18    20    1
     6    19    20    1
     7     7    20    1
     8    18    23    1
     9    18    22    1
    10    16    19    1
    11     5    19    1
    12     6    19    1
    13    12    16   ar
    14    13    16   ar
    15    12    14   ar
    16     1    12    1
    17    13    15   ar
    18     2    13    1
    19    14    17   ar
    20     3    14    1
    21    15    17   ar
    22     4    15    1
    23    17    24    1
    24    11    24    1
@<TRIPOS>SUBSTRUCTURE
     1 lig         1 TEMP              0 ****  ****    0 ROOT


########## Name:		ligand
########## HA_RMSDs:		11.5805
########## HA_RMSDh:		11.5591
########## HA_RMSDm:		9.8173
########## Cluster Size:	1
##########    Grid Score:          -17.286119
##########      Grid_vdw:          -12.967689
##########       Grid_es:           -4.318431
##########    Int_energy:            3.197071

@<TRIPOS>MOLECULE
ligand
 24 24 1 0 0
SMALL
No Charge or Current Charge


@<TRIPOS>ATOM
      1 H1         18.9540   16.2329   28.6078 H       1  lig         0.1313
      2 H2         15.3932   18.0049   30.1629 H       1  lig         0.1473
      3 H3         20.1936   18.2249   29.2754 H       1  lig         0.1394
      4 H4         16.6303   20.0420   30.7926 H       1  lig         0.1574
      5 H5         16.9761   14.9026   29.0846 H       1  lig         0.1170
      6 H6         15.4785   15.6056   29.6046 H       1  lig         0.0678
      7 H7         14.9345   15.0741   27.3940 H       1  lig         0.0912
      8 H8         17.1786   14.2611   26.8908 H       1  lig         0.4249
      9 H9         16.6430   15.2006   25.6244 H       1  lig         0.4256
     10 H10        17.7349   15.8298   26.7202 H       1  lig         0.4835
     11 H11        20.1879   20.0159   30.2653 H       1  lig         0.4236
     12 C1         18.4314   17.0623   29.0804 C.ar    1  lig        -0.1098
     13 C2         16.4611   18.0665   29.9592 C.ar    1  lig        -0.0948
     14 C3         19.1250   18.1782   29.4601 C.ar    1  lig        -0.2079
     15 C4         17.1445   19.2149   30.3107 C.ar    1  lig        -0.1468
     16 C5         17.0932   17.0044   29.3229 C.ar    1  lig        -0.1510
     17 C6         18.5061   19.2567   30.0345 C.ar    1  lig         0.1263
     18 C7         15.3675   17.1151   27.0656 C.2     1  lig         0.9365
     19 C8         16.3200   15.7610   28.9266 C.3     1  lig        -0.0459
     20 C9         15.8017   15.7304   27.4885 C.3     1  lig        -0.0743
     21 N1         16.8769   15.2190   26.6393 N.4     1  lig        -0.8330
     22 O1         16.1632   17.7004   26.3343 O.co2   1  lig        -0.7110
     23 O2         14.2911   17.6555   27.4503 O.co2   1  lig        -0.8016
     24 O3         19.2208   20.2536   30.3760 O.3     1  lig        -0.4958
@<TRIPOS>BOND
     1    20    21    1
     2     8    21    1
     3     9    21    1
     4    10    21    1
     5    18    20    1
     6    19    20    1
     7     7    20    1
     8    18    23    1
     9    18    22    1
    10    16    19    1
    11     5    19    1
    12     6    19    1
    13    12    16   ar
    14    13    16   ar
    15    12    14   ar
    16     1    12    1
    17    13    15   ar
    18     2    13    1
    19    14    17   ar
    20     3    14    1
    21    15    17   ar
    22     4    15    1
    23    17    24    1
    24    11    24    1
@<TRIPOS>SUBSTRUCTURE
     1 lig         1 TEMP              0 ****  ****    0 ROOT


########## Name:		ligand
########## HA_RMSDs:		13.9761
########## HA_RMSDh:		13.9722
########## HA_RMSDm:		11.7762
########## Cluster Size:	1
##########    Grid Score:          -17.259327
##########      Grid_vdw:          -15.641788
##########       Grid_es:           -1.617538
##########    Int_energy:            1.335380

@<TRIPOS>MOLECULE
ligand
 24 24 1 0 0
SMALL
No Charge or Current Charge


@<TRIPOS>ATOM
      1 H1         11.0053    6.4470   22.9909 H       1  lig         0.1313
      2 H2          8.7672    8.7462   20.1727 H       1  lig         0.1473
      3 H3         12.7239    8.1781   22.9837 H       1  lig         0.1394
      4 H4         10.5247   10.4739   20.1214 H       1  lig         0.1574
      5 H5          8.1060    6.5481   20.6796 H       1  lig         0.1170
      6 H6          9.1537    5.4211   21.4792 H       1  lig         0.0678
      7 H7          8.2268    6.9817   23.6247 H       1  lig         0.0912
      8 H8          8.4883    4.5602   23.4890 H       1  lig         0.4249
      9 H9          6.9512    4.9129   24.0241 H       1  lig         0.4256
     10 H10         7.1922    4.4550   22.4363 H       1  lig         0.4835
     11 H11        12.9138   10.5770   20.6843 H       1  lig         0.4236
     12 C1         10.8900    7.3212   22.3532 C.ar    1  lig        -0.1098
     13 C2          9.6571    8.6224   20.7881 C.ar    1  lig        -0.0948
     14 C3         11.8498    8.2956   22.3511 C.ar    1  lig        -0.2079
     15 C4         10.6392    9.5936   20.7479 C.ar    1  lig        -0.1468
     16 C5          9.7909    7.4778   21.5655 C.ar    1  lig        -0.1510
     17 C6         11.7602    9.4005   21.5465 C.ar    1  lig         0.1263
     18 C7          6.4725    7.0737   22.4522 C.2     1  lig         0.9365
     19 C8          8.7101    6.4136   21.5792 C.3     1  lig        -0.0459
     20 C9          7.7889    6.4169   22.7996 C.3     1  lig        -0.0743
     21 N1          7.6048    5.0288   23.2213 N.4     1  lig        -0.8330
     22 O1          6.2270    8.0967   23.0876 O.co2   1  lig        -0.7110
     23 O2          5.6626    6.6040   21.6024 O.co2   1  lig        -0.8016
     24 O3         12.6854   10.2730   21.6114 O.3     1  lig        -0.4958
@<TRIPOS>BOND
     1    20    21    1
     2     8    21    1
     3     9    21    1
     4    10    21    1
     5    18    20    1
     6    19    20    1
     7     7    20    1
     8    18    23    1
     9    18    22    1
    10    16    19    1
    11     5    19    1
    12     6    19    1
    13    12    16   ar
    14    13    16   ar
    15    12    14   ar
    16     1    12    1
    17    13    15   ar
    18     2    13    1
    19    14    17   ar
    20     3    14    1
    21    15    17   ar
    22     4    15    1
    23    17    24    1
    24    11    24    1
@<TRIPOS>SUBSTRUCTURE
     1 lig         1 TEMP              0 ****  ****    0 ROOT


########## Name:		ligand
########## HA_RMSDs:		11.0452
########## HA_RMSDh:		10.9935
########## HA_RMSDm:		8.1325
########## Cluster Size:	3
##########    Grid Score:          -17.197193
##########      Grid_vdw:          -13.977738
##########       Grid_es:           -3.219454
##########    Int_energy:            3.093294

@<TRIPOS>MOLECULE
ligand
 24 24 1 0 0
SMALL
No Charge or Current Charge


@<TRIPOS>ATOM
      1 H1         15.8988   13.3078   25.7934 H       1  lig         0.1313
      2 H2         14.0639   15.3621   29.0568 H       1  lig         0.1473
      3 H3         16.6412   15.4553   24.9060 H       1  lig         0.1394
      4 H4         14.7662   17.5390   28.1376 H       1  lig         0.1574
      5 H5         15.2737   12.1531   27.8652 H       1  lig         0.1170
      6 H6         14.3647   12.9337   29.1189 H       1  lig         0.0678
      7 H7         12.8894   11.3715   27.9483 H       1  lig         0.0912
      8 H8         14.1556   11.3449   25.8636 H       1  lig         0.4249
      9 H9         12.5601   11.6841   25.5275 H       1  lig         0.4256
     10 H10        13.6874   12.9164   25.5309 H       1  lig         0.4835
     11 H11        16.7073   17.4800   25.0992 H       1  lig         0.4236
     12 C1         15.6388   14.2274   26.3140 C.ar    1  lig        -0.1098
     13 C2         14.6295   15.3926   28.1268 C.ar    1  lig        -0.0948
     14 C3         16.0581   15.4324   25.8212 C.ar    1  lig        -0.2079
     15 C4         15.0135   16.6181   27.6167 C.ar    1  lig        -0.1468
     16 C5         14.9161   14.2030   27.4672 C.ar    1  lig        -0.1510
     17 C6         15.7335   16.6168   26.4278 C.ar    1  lig         0.1263
     18 C7         12.0397   13.2832   27.6585 C.2     1  lig         0.9365
     19 C8         14.4671   12.8695   28.0339 C.3     1  lig        -0.0459
     20 C9         13.1713   12.3025   27.4530 C.3     1  lig        -0.0743
     21 N1         13.4009   12.0328   26.0341 N.4     1  lig        -0.8330
     22 O1         11.7081   13.9015   26.6493 O.co2   1  lig        -0.7110
     23 O2         11.4894   13.4873   28.7785 O.co2   1  lig        -0.8016
     24 O3         16.1738   17.6979   25.9190 O.3     1  lig        -0.4958
@<TRIPOS>BOND
     1    20    21    1
     2     8    21    1
     3     9    21    1
     4    10    21    1
     5    18    20    1
     6    19    20    1
     7     7    20    1
     8    18    23    1
     9    18    22    1
    10    16    19    1
    11     5    19    1
    12     6    19    1
    13    12    16   ar
    14    13    16   ar
    15    12    14   ar
    16     1    12    1
    17    13    15   ar
    18     2    13    1
    19    14    17   ar
    20     3    14    1
    21    15    17   ar
    22     4    15    1
    23    17    24    1
    24    11    24    1
@<TRIPOS>SUBSTRUCTURE
     1 lig         1 TEMP              0 ****  ****    0 ROOT


########## Name:		ligand
########## HA_RMSDs:		14.4512
########## HA_RMSDh:		14.4201
########## HA_RMSDm:		12.5425
########## Cluster Size:	2
##########    Grid Score:          -17.181870
##########      Grid_vdw:          -11.445198
##########       Grid_es:           -5.736671
##########    Int_energy:            1.960019

@<TRIPOS>MOLECULE
ligand
 24 24 1 0 0
SMALL
No Charge or Current Charge


@<TRIPOS>ATOM
      1 H1         26.1721    5.0529   14.8144 H       1  lig         0.1313
      2 H2         22.3001    4.7114   16.5829 H       1  lig         0.1473
      3 H3         27.0796    5.6395   17.0013 H       1  lig         0.1394
      4 H4         23.2018    5.3548   18.7852 H       1  lig         0.1574
      5 H5         24.3160    3.7974   13.7355 H       1  lig         0.1170
      6 H6         22.6900    3.9094   14.3279 H       1  lig         0.0678
      7 H7         24.2654    6.0981   12.8976 H       1  lig         0.0912
      8 H8         23.0563    7.0288   14.8007 H       1  lig         0.4249
      9 H9         22.2800    7.4684   13.3944 H       1  lig         0.4256
     10 H10        21.6602    6.2341   14.3333 H       1  lig         0.4835
     11 H11        25.0590    5.8915   19.8328 H       1  lig         0.4236
     12 C1         25.5092    5.1210   15.6746 C.ar    1  lig        -0.1098
     13 C2         23.3621    4.9302   16.6829 C.ar    1  lig        -0.0948
     14 C3         26.0163    5.4449   16.9029 C.ar    1  lig        -0.2079
     15 C4         23.8569    5.2956   17.9202 C.ar    1  lig        -0.1468
     16 C5         24.1767    4.8682   15.5581 C.ar    1  lig        -0.1510
     17 C6         25.2171    5.5675   18.0085 C.ar    1  lig         0.1263
     18 C7         22.5939    5.1441   12.0277 C.2     1  lig         0.9365
     19 C8         23.6093    4.4851   14.2045 C.3     1  lig        -0.0459
     20 C9         23.3357    5.6445   13.2459 C.3     1  lig        -0.0743
     21 N1         22.5622    6.6499   13.9736 N.4     1  lig        -0.8330
     22 O1         21.9042    5.9911   11.4641 O.co2   1  lig        -0.7110
     23 O2         22.6420    3.9461   11.6260 O.co2   1  lig        -0.8016
     24 O3         25.7639    5.8564   19.1215 O.3     1  lig        -0.4958
@<TRIPOS>BOND
     1    20    21    1
     2     8    21    1
     3     9    21    1
     4    10    21    1
     5    18    20    1
     6    19    20    1
     7     7    20    1
     8    18    23    1
     9    18    22    1
    10    16    19    1
    11     5    19    1
    12     6    19    1
    13    12    16   ar
    14    13    16   ar
    15    12    14   ar
    16     1    12    1
    17    13    15   ar
    18     2    13    1
    19    14    17   ar
    20     3    14    1
    21    15    17   ar
    22     4    15    1
    23    17    24    1
    24    11    24    1
@<TRIPOS>SUBSTRUCTURE
     1 lig         1 TEMP              0 ****  ****    0 ROOT


########## Name:		ligand
########## HA_RMSDs:		11.1931
########## HA_RMSDh:		11.1732
########## HA_RMSDm:		9.7921
########## Cluster Size:	1
##########    Grid Score:          -17.145933
##########      Grid_vdw:          -14.684944
##########       Grid_es:           -2.460989
##########    Int_energy:            1.794902

@<TRIPOS>MOLECULE
ligand
 24 24 1 0 0
SMALL
No Charge or Current Charge


@<TRIPOS>ATOM
      1 H1         13.7409   16.9763   29.5906 H       1  lig         0.1313
      2 H2         17.8098   17.8065   28.5947 H       1  lig         0.1473
      3 H3         13.4936   19.2818   30.3480 H       1  lig         0.1394
      4 H4         17.5811   20.1227   29.4071 H       1  lig         0.1574
      5 H5         17.0156   15.6406   28.4057 H       1  lig         0.1170
      6 H6         15.6709   15.1112   29.3644 H       1  lig         0.0678
      7 H7         14.1359   15.7719   27.3768 H       1  lig         0.0912
      8 H8         14.7995   13.4922   27.9361 H       1  lig         0.4249
      9 H9         14.7692   13.6597   26.2794 H       1  lig         0.4256
     10 H10        16.2302   13.6748   27.0881 H       1  lig         0.4835
     11 H11        16.1713   21.5039   30.4141 H       1  lig         0.4236
     12 C1         14.5919   17.6533   29.5501 C.ar    1  lig        -0.1098
     13 C2         16.8544   18.1405   28.9967 C.ar    1  lig        -0.0948
     14 C3         14.4545   18.9478   29.9695 C.ar    1  lig        -0.2079
     15 C4         16.7380   19.4389   29.4549 C.ar    1  lig        -0.1468
     16 C5         15.7962   17.2418   29.0672 C.ar    1  lig        -0.1510
     17 C6         15.5036   19.8284   29.9612 C.ar    1  lig         0.1263
     18 C7         15.7843   16.1722   26.1185 C.2     1  lig         0.9365
     19 C8         15.9514   15.8145   28.5778 C.3     1  lig        -0.0459
     20 C9         15.1795   15.4597   27.3064 C.3     1  lig        -0.0743
     21 N1         15.2292   14.0068   27.1471 N.4     1  lig        -0.8330
     22 O1         16.5037   15.4697   25.4117 O.co2   1  lig        -0.7110
     23 O2         15.6016   17.3995   25.8751 O.co2   1  lig        -0.8016
     24 O3         15.2949   21.0222   30.3519 O.3     1  lig        -0.4958
@<TRIPOS>BOND
     1    20    21    1
     2     8    21    1
     3     9    21    1
     4    10    21    1
     5    18    20    1
     6    19    20    1
     7     7    20    1
     8    18    23    1
     9    18    22    1
    10    16    19    1
    11     5    19    1
    12     6    19    1
    13    12    16   ar
    14    13    16   ar
    15    12    14   ar
    16     1    12    1
    17    13    15   ar
    18     2    13    1
    19    14    17   ar
    20     3    14    1
    21    15    17   ar
    22     4    15    1
    23    17    24    1
    24    11    24    1
@<TRIPOS>SUBSTRUCTURE
     1 lig         1 TEMP              0 ****  ****    0 ROOT


########## Name:		ligand
########## HA_RMSDs:		10.3891
########## HA_RMSDh:		10.3887
########## HA_RMSDm:		8.3532
########## Cluster Size:	1
##########    Grid Score:          -17.127487
##########      Grid_vdw:          -12.630767
##########       Grid_es:           -4.496720
##########    Int_energy:            1.437718

@<TRIPOS>MOLECULE
ligand
 24 24 1 0 0
SMALL
No Charge or Current Charge


@<TRIPOS>ATOM
      1 H1         22.2614   14.8722   27.2207 H       1  lig         0.1313
      2 H2         19.6116   13.2233   24.3058 H       1  lig         0.1473
      3 H3         20.3353   15.3941   28.6237 H       1  lig         0.1394
      4 H4         17.6575   13.7954   25.6956 H       1  lig         0.1574
      5 H5         21.8679   13.3852   23.8221 H       1  lig         0.1170
      6 H6         22.8457   14.5864   24.6020 H       1  lig         0.0678
      7 H7         23.1599   12.5731   26.4279 H       1  lig         0.0912
      8 H8         24.8833   13.8102   25.2240 H       1  lig         0.4249
      9 H9         25.2353   12.1837   25.1601 H       1  lig         0.4256
     10 H10        24.5675   12.9409   23.8298 H       1  lig         0.4835
     11 H11        18.3109   15.0933   28.9645 H       1  lig         0.4236
     12 C1         21.2580   14.6360   26.8718 C.ar    1  lig        -0.1098
     13 C2         19.7632   13.7166   25.2647 C.ar    1  lig        -0.0948
     14 C3         20.1768   14.9231   27.6587 C.ar    1  lig        -0.2079
     15 C4         18.6612   14.0384   26.0337 C.ar    1  lig        -0.1468
     16 C5         21.0549   14.0365   25.6668 C.ar    1  lig        -0.1510
     17 C6         18.8944   14.6677   27.2509 C.ar    1  lig         0.1263
     18 C7         22.7072   11.2450   24.8492 C.2     1  lig         0.9365
     19 C8         22.2497   13.6929   24.7977 C.3     1  lig        -0.0459
     20 C9         23.1714   12.5984   25.3367 C.3     1  lig        -0.0743
     21 N1         24.5294   12.8984   24.8846 N.4     1  lig        -0.8330
     22 O1         23.4945   10.6735   24.0981 O.co2   1  lig        -0.7110
     23 O2         21.5882   10.7411   25.1536 O.co2   1  lig        -0.8016
     24 O3         17.9395   14.9480   28.0452 O.3     1  lig        -0.4958
@<TRIPOS>BOND
     1    20    21    1
     2     8    21    1
     3     9    21    1
     4    10    21    1
     5    18    20    1
     6    19    20    1
     7     7    20    1
     8    18    23    1
     9    18    22    1
    10    16    19    1
    11     5    19    1
    12     6    19    1
    13    12    16   ar
    14    13    16   ar
    15    12    14   ar
    16     1    12    1
    17    13    15   ar
    18     2    13    1
    19    14    17   ar
    20     3    14    1
    21    15    17   ar
    22     4    15    1
    23    17    24    1
    24    11    24    1
@<TRIPOS>SUBSTRUCTURE
     1 lig         1 TEMP              0 ****  ****    0 ROOT


########## Name:		ligand
########## HA_RMSDs:		11.7458
########## HA_RMSDh:		11.6910
########## HA_RMSDm:		9.6023
########## Cluster Size:	1
##########    Grid Score:          -17.076078
##########      Grid_vdw:          -16.012230
##########       Grid_es:           -1.063848
##########    Int_energy:            2.212429

@<TRIPOS>MOLECULE
ligand
 24 24 1 0 0
SMALL
No Charge or Current Charge


@<TRIPOS>ATOM
      1 H1         12.9010   12.6743   25.7713 H       1  lig         0.1313
      2 H2         11.1359   11.2773   22.1423 H       1  lig         0.1473
      3 H3         15.0688   11.8854   24.9782 H       1  lig         0.1394
      4 H4         13.3143   10.4310   21.3579 H       1  lig         0.1574
      5 H5         10.7096   13.1312   25.3760 H       1  lig         0.1170
      6 H6         10.0938   13.1805   23.7556 H       1  lig         0.0678
      7 H7          9.6405   10.5406   24.2336 H       1  lig         0.0912
      8 H8          8.0259   12.2595   23.6100 H       1  lig         0.4249
      9 H9          7.3956   11.3446   24.8507 H       1  lig         0.4256
     10 H10         8.0236   12.8582   25.1723 H       1  lig         0.4835
     11 H11        15.9641   10.3092   23.5828 H       1  lig         0.4236
     12 C1         12.9763   12.1795   24.8050 C.ar    1  lig        -0.1098
     13 C2         12.0155   11.3993   22.7725 C.ar    1  lig        -0.0948
     14 C3         14.1914   11.7407   24.3559 C.ar    1  lig        -0.2079
     15 C4         13.2309   10.9163   22.3265 C.ar    1  lig        -0.1468
     16 C5         11.8805   12.0045   24.0167 C.ar    1  lig        -0.1510
     17 C6         14.3305   11.0900   23.1586 C.ar    1  lig         0.1263
     18 C7          9.6720   11.0130   26.2919 C.2     1  lig         0.9365
     19 C8         10.5327   12.5092   24.4962 C.3     1  lig        -0.0459
     20 C9          9.5065   11.4321   24.8491 C.3     1  lig        -0.0743
     21 N1          8.1765   11.9856   24.5971 N.4     1  lig        -0.8330
     22 O1          8.6186   10.7919   26.8852 O.co2   1  lig        -0.7110
     23 O2         10.7946   10.9237   26.8670 O.co2   1  lig        -0.8016
     24 O3         15.4965   10.7250   22.8002 O.3     1  lig        -0.4958
@<TRIPOS>BOND
     1    20    21    1
     2     8    21    1
     3     9    21    1
     4    10    21    1
     5    18    20    1
     6    19    20    1
     7     7    20    1
     8    18    23    1
     9    18    22    1
    10    16    19    1
    11     5    19    1
    12     6    19    1
    13    12    16   ar
    14    13    16   ar
    15    12    14   ar
    16     1    12    1
    17    13    15   ar
    18     2    13    1
    19    14    17   ar
    20     3    14    1
    21    15    17   ar
    22     4    15    1
    23    17    24    1
    24    11    24    1
@<TRIPOS>SUBSTRUCTURE
     1 lig         1 TEMP              0 ****  ****    0 ROOT


########## Name:		ligand
########## HA_RMSDs:		10.5873
########## HA_RMSDh:		10.4588
########## HA_RMSDm:		8.9792
########## Cluster Size:	4
##########    Grid Score:          -17.061899
##########      Grid_vdw:          -13.552019
##########       Grid_es:           -3.509880
##########    Int_energy:            1.191504

@<TRIPOS>MOLECULE
ligand
 24 24 1 0 0
SMALL
No Charge or Current Charge


@<TRIPOS>ATOM
      1 H1         14.4743   11.4617   24.2234 H       1  lig         0.1313
      2 H2         18.0857    9.2312   23.7549 H       1  lig         0.1473
      3 H3         13.4104   10.0174   22.5703 H       1  lig         0.1394
      4 H4         17.0318    7.8015   22.0455 H       1  lig         0.1574
      5 H5         16.2378   11.6598   25.8110 H       1  lig         0.1170
      6 H6         17.7117   10.7507   25.7194 H       1  lig         0.0678
      7 H7         17.7051   12.6017   23.4859 H       1  lig         0.0912
      8 H8         19.6243   11.6305   24.6363 H       1  lig         0.4249
      9 H9         19.7226   13.2909   24.7192 H       1  lig         0.4256
     10 H10        19.2085   12.4228   26.0500 H       1  lig         0.4835
     11 H11        15.1053    7.3699   21.0699 H       1  lig         0.4236
     12 C1         15.0478   10.6673   23.7499 C.ar    1  lig        -0.1098
     13 C2         17.0474    9.4062   23.4773 C.ar    1  lig        -0.0948
     14 C3         14.4522    9.8530   22.8264 C.ar    1  lig        -0.2079
     15 C4         16.4674    8.6031   22.5140 C.ar    1  lig        -0.1468
     16 C5         16.3518   10.4510   24.0750 C.ar    1  lig        -0.1510
     17 C6         15.1409    8.8571   22.1859 C.ar    1  lig         0.1263
     18 C7         17.0873   13.8237   25.0940 C.2     1  lig         0.9365
     19 C8         17.0139   11.3341   25.1155 C.3     1  lig        -0.0459
     20 C9         17.7439   12.5646   24.5761 C.3     1  lig        -0.0743
     21 N1         19.1414   12.4723   24.9970 N.4     1  lig        -0.8330
     22 O1         17.7749   14.4749   25.8774 O.co2   1  lig        -0.7110
     23 O2         15.9138   14.1763   24.7821 O.co2   1  lig        -0.8016
     24 O3         14.5143    8.1293   21.3498 O.3     1  lig        -0.4958
@<TRIPOS>BOND
     1    20    21    1
     2     8    21    1
     3     9    21    1
     4    10    21    1
     5    18    20    1
     6    19    20    1
     7     7    20    1
     8    18    23    1
     9    18    22    1
    10    16    19    1
    11     5    19    1
    12     6    19    1
    13    12    16   ar
    14    13    16   ar
    15    12    14   ar
    16     1    12    1
    17    13    15   ar
    18     2    13    1
    19    14    17   ar
    20     3    14    1
    21    15    17   ar
    22     4    15    1
    23    17    24    1
    24    11    24    1
@<TRIPOS>SUBSTRUCTURE
     1 lig         1 TEMP              0 ****  ****    0 ROOT


########## Name:		ligand
########## HA_RMSDs:		9.4328
########## HA_RMSDh:		9.4080
########## HA_RMSDm:		7.6847
########## Cluster Size:	1
##########    Grid Score:          -16.944239
##########      Grid_vdw:          -13.512118
##########       Grid_es:           -3.432120
##########    Int_energy:            3.037019

@<TRIPOS>MOLECULE
ligand
 24 24 1 0 0
SMALL
No Charge or Current Charge


@<TRIPOS>ATOM
      1 H1         14.0726   11.5994   25.5991 H       1  lig         0.1313
      2 H2         17.8470   13.5879   25.4070 H       1  lig         0.1473
      3 H3         13.2107   13.4426   26.9445 H       1  lig         0.1394
      4 H4         16.9975   15.4282   26.8100 H       1  lig         0.1574
      5 H5         17.6393   11.3081   24.7192 H       1  lig         0.1170
      6 H6         16.1994   10.3735   24.9651 H       1  lig         0.0678
      7 H7         17.0167   10.9327   22.4969 H       1  lig         0.0912
      8 H8         17.0697   13.3381   22.8987 H       1  lig         0.4249
      9 H9         15.9256   13.0053   21.7352 H       1  lig         0.4256
     10 H10        15.4457   13.3311   23.3012 H       1  lig         0.4835
     11 H11        13.5303   15.4982   27.4724 H       1  lig         0.4236
     12 C1         14.7259   12.4291   25.8619 C.ar    1  lig        -0.1098
     13 C2         16.8182   13.5583   25.7626 C.ar    1  lig        -0.0948
     14 C3         14.2436   13.4662   26.6119 C.ar    1  lig        -0.2079
     15 C4         16.3532   14.5917   26.5532 C.ar    1  lig        -0.1468
     16 C5         16.0191   12.4678   25.4389 C.ar    1  lig        -0.1510
     17 C6         15.0352   14.5187   26.9884 C.ar    1  lig         0.1263
     18 C7         14.9380   10.7110   22.7980 C.2     1  lig         0.9365
     19 C8         16.5558   11.3335   24.5867 C.3     1  lig        -0.0459
     20 C9         16.2412   11.4177   23.0927 C.3     1  lig        -0.0743
     21 N1         16.1817   12.8332   22.7301 N.4     1  lig        -0.8330
     22 O1         13.9441   11.4332   22.8342 O.co2   1  lig        -0.7110
     23 O2         14.8553    9.4713   22.5634 O.co2   1  lig        -0.8016
     24 O3         14.5110   15.4554   27.6734 O.3     1  lig        -0.4958
@<TRIPOS>BOND
     1    20    21    1
     2     8    21    1
     3     9    21    1
     4    10    21    1
     5    18    20    1
     6    19    20    1
     7     7    20    1
     8    18    23    1
     9    18    22    1
    10    16    19    1
    11     5    19    1
    12     6    19    1
    13    12    16   ar
    14    13    16   ar
    15    12    14   ar
    16     1    12    1
    17    13    15   ar
    18     2    13    1
    19    14    17   ar
    20     3    14    1
    21    15    17   ar
    22     4    15    1
    23    17    24    1
    24    11    24    1
@<TRIPOS>SUBSTRUCTURE
     1 lig         1 TEMP              0 ****  ****    0 ROOT


########## Name:		ligand
########## HA_RMSDs:		13.8745
########## HA_RMSDh:		13.8149
########## HA_RMSDm:		12.2563
########## Cluster Size:	1
##########    Grid Score:          -16.936083
##########      Grid_vdw:          -17.143772
##########       Grid_es:            0.207690
##########    Int_energy:            1.939077

@<TRIPOS>MOLECULE
ligand
 24 24 1 0 0
SMALL
No Charge or Current Charge


@<TRIPOS>ATOM
      1 H1         22.4099    4.6613   13.1355 H       1  lig         0.1313
      2 H2         25.1897    7.2836   15.0416 H       1  lig         0.1473
      3 H3         21.9535    6.4013   11.4879 H       1  lig         0.1394
      4 H4         24.6941    9.0645   13.4107 H       1  lig         0.1574
      5 H5         23.7729    3.8394   14.7993 H       1  lig         0.1170
      6 H6         25.1908    4.6748   15.3459 H       1  lig         0.0678
      7 H7         22.5037    5.4627   16.5237 H       1  lig         0.0912
      8 H8         24.5217    6.7549   16.9798 H       1  lig         0.4249
      9 H9         24.0521    5.9690   18.3710 H       1  lig         0.4256
     10 H10        25.3255    5.3720   17.4704 H       1  lig         0.4835
     11 H11        22.1413    8.4070   10.9784 H       1  lig         0.4236
     12 C1         22.9131    5.6233   13.2110 C.ar    1  lig        -0.1098
     13 C2         24.4621    7.0991   14.2527 C.ar    1  lig        -0.0948
     14 C3         22.6626    6.5988   12.2855 C.ar    1  lig        -0.2079
     15 C4         24.1869    8.1056   13.3469 C.ar    1  lig        -0.1468
     16 C5         23.8105    5.8721   14.2037 C.ar    1  lig        -0.1510
     17 C6         23.2525    7.8330   12.3547 C.ar    1  lig         0.1263
     18 C7         23.2552    3.6279   17.2516 C.2     1  lig         0.9365
     19 C8         24.1122    4.7878   15.2207 C.3     1  lig        -0.0459
     20 C9         23.4765    4.9732   16.5989 C.3     1  lig        -0.0743
     21 N1         24.3707    5.8168   17.3910 N.4     1  lig        -0.8330
     22 O1         22.2720    3.5709   17.9869 O.co2   1  lig        -0.7110
     23 O2         24.0278    2.6400   17.0906 O.co2   1  lig        -0.8016
     24 O3         22.9821    8.6847   11.4476 O.3     1  lig        -0.4958
@<TRIPOS>BOND
     1    20    21    1
     2     8    21    1
     3     9    21    1
     4    10    21    1
     5    18    20    1
     6    19    20    1
     7     7    20    1
     8    18    23    1
     9    18    22    1
    10    16    19    1
    11     5    19    1
    12     6    19    1
    13    12    16   ar
    14    13    16   ar
    15    12    14   ar
    16     1    12    1
    17    13    15   ar
    18     2    13    1
    19    14    17   ar
    20     3    14    1
    21    15    17   ar
    22     4    15    1
    23    17    24    1
    24    11    24    1
@<TRIPOS>SUBSTRUCTURE
     1 lig         1 TEMP              0 ****  ****    0 ROOT


########## Name:		ligand
########## HA_RMSDs:		15.7513
########## HA_RMSDh:		15.7203
########## HA_RMSDm:		13.5069
########## Cluster Size:	2
##########    Grid Score:          -16.910595
##########      Grid_vdw:          -11.891602
##########       Grid_es:           -5.018992
##########    Int_energy:            1.284427

@<TRIPOS>MOLECULE
ligand
 24 24 1 0 0
SMALL
No Charge or Current Charge


@<TRIPOS>ATOM
      1 H1         25.6308    4.0967   12.3515 H       1  lig         0.1313
      2 H2         26.7838    8.1595   12.9853 H       1  lig         0.1473
      3 H3         23.3211    4.7146   12.8351 H       1  lig         0.1394
      4 H4         24.4601    8.7798   13.5262 H       1  lig         0.1574
      5 H5         27.7956    4.6607   12.0419 H       1  lig         0.1170
      6 H6         28.1398    6.2605   11.4679 H       1  lig         0.0678
      7 H7         28.4747    6.6981   14.1582 H       1  lig         0.0912
      8 H8         30.0294    7.1639   12.3372 H       1  lig         0.4249
      9 H9         30.8470    6.3967   13.5686 H       1  lig         0.4256
     10 H10        30.4020    5.5379   12.2072 H       1  lig         0.4835
     11 H11        21.9573    6.2809   13.0478 H       1  lig         0.4236
     12 C1         25.3892    5.1251   12.6130 C.ar    1  lig        -0.1098
     13 C2         26.0077    7.3959   12.9644 C.ar    1  lig        -0.0948
     14 C3         24.0942    5.4751   12.8797 C.ar    1  lig        -0.2079
     15 C4         24.7093    7.7524   13.2748 C.ar    1  lig        -0.1468
     16 C5         26.3539    6.0843   12.6606 C.ar    1  lig        -0.1510
     17 C6         23.7466    6.7506   13.2380 C.ar    1  lig         0.1263
     18 C7         28.9111    4.6359   14.2903 C.2     1  lig         0.9365
     19 C8         27.7892    5.7102   12.3432 C.3     1  lig        -0.0459
     20 C9         28.7942    5.9057   13.4788 C.3     1  lig        -0.0743
     21 N1         30.0738    6.2833   12.8799 N.4     1  lig        -0.8330
     22 O1         29.8257    3.8904   13.9461 O.co2   1  lig        -0.7110
     23 O2         28.1202    4.3340   15.2295 O.co2   1  lig        -0.8016
     24 O3         22.5179    7.0045   13.4556 O.3     1  lig        -0.4958
@<TRIPOS>BOND
     1    20    21    1
     2     8    21    1
     3     9    21    1
     4    10    21    1
     5    18    20    1
     6    19    20    1
     7     7    20    1
     8    18    23    1
     9    18    22    1
    10    16    19    1
    11     5    19    1
    12     6    19    1
    13    12    16   ar
    14    13    16   ar
    15    12    14   ar
    16     1    12    1
    17    13    15   ar
    18     2    13    1
    19    14    17   ar
    20     3    14    1
    21    15    17   ar
    22     4    15    1
    23    17    24    1
    24    11    24    1
@<TRIPOS>SUBSTRUCTURE
     1 lig         1 TEMP              0 ****  ****    0 ROOT


########## Name:		ligand
########## HA_RMSDs:		11.9936
########## HA_RMSDh:		11.9936
########## HA_RMSDm:		10.4904
########## Cluster Size:	1
##########    Grid Score:          -16.823212
##########      Grid_vdw:          -15.254517
##########       Grid_es:           -1.568694
##########    Int_energy:            2.691615

@<TRIPOS>MOLECULE
ligand
 24 24 1 0 0
SMALL
No Charge or Current Charge


@<TRIPOS>ATOM
      1 H1         17.3776   18.7859   29.5234 H       1  lig         0.1313
      2 H2         13.1769   18.5615   30.2592 H       1  lig         0.1473
      3 H3         17.3575   21.0911   30.3209 H       1  lig         0.1394
      4 H4         13.1406   20.9070   31.0168 H       1  lig         0.1574
      5 H5         16.2857   16.7005   29.5192 H       1  lig         0.1170
      6 H6         14.6221   16.4895   29.9610 H       1  lig         0.0678
      7 H7         14.0915   17.5297   27.5729 H       1  lig         0.0912
      8 H8         13.6839   15.2354   28.2939 H       1  lig         0.4249
      9 H9         14.2781   15.2199   26.7382 H       1  lig         0.4256
     10 H10        15.2849   14.8375   28.0146 H       1  lig         0.4835
     11 H11        16.2904   22.6632   31.0496 H       1  lig         0.4236
     12 C1         16.4414   19.2400   29.8422 C.ar    1  lig        -0.1098
     13 C2         14.1022   19.1357   30.2662 C.ar    1  lig        -0.0948
     14 C3         16.4283   20.5307   30.2944 C.ar    1  lig        -0.2079
     15 C4         14.0704   20.4514   30.6871 C.ar    1  lig        -0.1468
     16 C5         15.2753   18.5381   29.8201 C.ar    1  lig        -0.1510
     17 C6         15.2707   21.1521   30.6817 C.ar    1  lig         0.1263
     18 C7         16.0979   17.2182   26.9913 C.2     1  lig         0.9365
     19 C8         15.2843   17.0984   29.3425 C.3     1  lig        -0.0459
     20 C9         14.9176   16.8827   27.8738 C.3     1  lig        -0.0743
     21 N1         14.5068   15.4877   27.7185 N.4     1  lig        -0.8330
     22 O1         15.8003   17.6673   25.8866 O.co2   1  lig        -0.7110
     23 O2         17.3002   17.0280   27.3338 O.co2   1  lig        -0.8016
     24 O3         15.3400   22.3505   31.1065 O.3     1  lig        -0.4958
@<TRIPOS>BOND
     1    20    21    1
     2     8    21    1
     3     9    21    1
     4    10    21    1
     5    18    20    1
     6    19    20    1
     7     7    20    1
     8    18    23    1
     9    18    22    1
    10    16    19    1
    11     5    19    1
    12     6    19    1
    13    12    16   ar
    14    13    16   ar
    15    12    14   ar
    16     1    12    1
    17    13    15   ar
    18     2    13    1
    19    14    17   ar
    20     3    14    1
    21    15    17   ar
    22     4    15    1
    23    17    24    1
    24    11    24    1
@<TRIPOS>SUBSTRUCTURE
     1 lig         1 TEMP              0 ****  ****    0 ROOT


########## Name:		ligand
########## HA_RMSDs:		16.3139
########## HA_RMSDh:		16.2479
########## HA_RMSDm:		13.9161
########## Cluster Size:	1
##########    Grid Score:          -16.781013
##########      Grid_vdw:          -11.690245
##########       Grid_es:           -5.090768
##########    Int_energy:            1.474483

@<TRIPOS>MOLECULE
ligand
 24 24 1 0 0
SMALL
No Charge or Current Charge


@<TRIPOS>ATOM
      1 H1         25.1438    2.0833   12.9655 H       1  lig         0.1313
      2 H2         23.8355    4.4822   16.2473 H       1  lig         0.1473
      3 H3         27.3801    2.0356   13.9386 H       1  lig         0.1394
      4 H4         26.1054    4.4815   17.2086 H       1  lig         0.1574
      5 H5         22.7516    2.3208   13.5615 H       1  lig         0.1170
      6 H6         22.2186    3.4889   14.7271 H       1  lig         0.0678
      7 H7         23.5907    4.4081   12.1642 H       1  lig         0.0912
      8 H8         23.2966    5.9708   14.0140 H       1  lig         0.4249
      9 H9         22.2771    6.4017   12.7696 H       1  lig         0.4256
     10 H10        21.6677    5.5987   14.1011 H       1  lig         0.4835
     11 H11        28.3089    4.0294   16.5324 H       1  lig         0.4236
     12 C1         25.3420    2.6177   13.8925 C.ar    1  lig        -0.1098
     13 C2         24.6336    3.9482   15.7338 C.ar    1  lig        -0.0948
     14 C3         26.5938    2.5884   14.4428 C.ar    1  lig        -0.2079
     15 C4         25.9039    3.9587   16.2777 C.ar    1  lig        -0.1468
     16 C5         24.3567    3.3042   14.5334 C.ar    1  lig        -0.1510
     17 C6         26.8964    3.2666   15.5937 C.ar    1  lig         0.1263
     18 C7         21.5467    3.9100   11.9775 C.2     1  lig         0.9365
     19 C8         22.9596    3.3226   13.9429 C.3     1  lig        -0.0459
     20 C9         22.7239    4.3375   12.8238 C.3     1  lig        -0.0743
     21 N1         22.4958    5.6409   13.4466 N.4     1  lig        -0.8330
     22 O1         21.6113    4.2539   10.7992 O.co2   1  lig        -0.7110
     23 O2         20.5523    3.2776   12.4357 O.co2   1  lig        -0.8016
     24 O3         28.0802    3.1789   16.0544 O.3     1  lig        -0.4958
@<TRIPOS>BOND
     1    20    21    1
     2     8    21    1
     3     9    21    1
     4    10    21    1
     5    18    20    1
     6    19    20    1
     7     7    20    1
     8    18    23    1
     9    18    22    1
    10    16    19    1
    11     5    19    1
    12     6    19    1
    13    12    16   ar
    14    13    16   ar
    15    12    14   ar
    16     1    12    1
    17    13    15   ar
    18     2    13    1
    19    14    17   ar
    20     3    14    1
    21    15    17   ar
    22     4    15    1
    23    17    24    1
    24    11    24    1
@<TRIPOS>SUBSTRUCTURE
     1 lig         1 TEMP              0 ****  ****    0 ROOT


########## Name:		ligand
########## HA_RMSDs:		15.5718
########## HA_RMSDh:		15.5718
########## HA_RMSDm:		13.5847
########## Cluster Size:	1
##########    Grid Score:          -16.747555
##########      Grid_vdw:          -15.357975
##########       Grid_es:           -1.389580
##########    Int_energy:            3.507370

@<TRIPOS>MOLECULE
ligand
 24 24 1 0 0
SMALL
No Charge or Current Charge


@<TRIPOS>ATOM
      1 H1          9.9527    6.2843   23.4371 H       1  lig         0.1313
      2 H2          6.8237    6.4571   20.5360 H       1  lig         0.1473
      3 H3         11.1867    7.9507   22.1525 H       1  lig         0.1394
      4 H4          8.0891    8.1023   19.2060 H       1  lig         0.1574
      5 H5          7.8418    5.3335   23.9033 H       1  lig         0.1170
      6 H6          6.4766    5.4654   22.8420 H       1  lig         0.0678
      7 H7          7.5254    3.0890   23.2658 H       1  lig         0.0912
      8 H8          9.8004    3.8061   22.7557 H       1  lig         0.4249
      9 H9          9.3347    2.6473   21.6540 H       1  lig         0.4256
     10 H10         9.3378    4.2579   21.2126 H       1  lig         0.4835
     11 H11         9.9467    9.2774   19.1751 H       1  lig         0.4236
     12 C1          9.5353    6.6699   22.5091 C.ar    1  lig        -0.1098
     13 C2          7.8014    6.7875   20.8835 C.ar    1  lig        -0.0948
     14 C3         10.2230    7.6080   21.7895 C.ar    1  lig        -0.2079
     15 C4          8.5053    7.7056   20.1280 C.ar    1  lig        -0.1468
     16 C5          8.3226    6.2503   22.0549 C.ar    1  lig        -0.1510
     17 C6          9.7495    8.1030   20.6034 C.ar    1  lig         0.1263
     18 C7          6.7549    3.4268   21.3286 C.2     1  lig         0.9365
     19 C8          7.5421    5.2277   22.8587 C.3     1  lig        -0.0459
     20 C9          7.7248    3.7696   22.4361 C.3     1  lig        -0.0743
     21 N1          9.1132    3.6013   22.0089 N.4     1  lig        -0.8330
     22 O1          7.2459    2.7964   20.3947 O.co2   1  lig        -0.7110
     23 O2          5.5409    3.7804   21.3314 O.co2   1  lig        -0.8016
     24 O3         10.4386    8.9862   19.9981 O.3     1  lig        -0.4958
@<TRIPOS>BOND
     1    20    21    1
     2     8    21    1
     3     9    21    1
     4    10    21    1
     5    18    20    1
     6    19    20    1
     7     7    20    1
     8    18    23    1
     9    18    22    1
    10    16    19    1
    11     5    19    1
    12     6    19    1
    13    12    16   ar
    14    13    16   ar
    15    12    14   ar
    16     1    12    1
    17    13    15   ar
    18     2    13    1
    19    14    17   ar
    20     3    14    1
    21    15    17   ar
    22     4    15    1
    23    17    24    1
    24    11    24    1
@<TRIPOS>SUBSTRUCTURE
     1 lig         1 TEMP              0 ****  ****    0 ROOT


########## Name:		ligand
########## HA_RMSDs:		13.4568
########## HA_RMSDh:		13.3910
########## HA_RMSDm:		9.2273
########## Cluster Size:	1
##########    Grid Score:          -16.690376
##########      Grid_vdw:          -14.999502
##########       Grid_es:           -1.690873
##########    Int_energy:            2.130100

@<TRIPOS>MOLECULE
ligand
 24 24 1 0 0
SMALL
No Charge or Current Charge


@<TRIPOS>ATOM
      1 H1         13.5226   17.8737   30.0960 H       1  lig         0.1313
      2 H2         17.4146   19.3083   29.0803 H       1  lig         0.1473
      3 H3         13.5908   16.4134   28.1433 H       1  lig         0.1394
      4 H4         17.4677   17.8735   27.0765 H       1  lig         0.1574
      5 H5         14.7131   19.1641   31.6260 H       1  lig         0.1170
      6 H6         16.3885   19.5676   31.4328 H       1  lig         0.0678
      7 H7         15.4193   21.3964   29.6965 H       1  lig         0.0912
      8 H8         16.6953   21.7979   31.7363 H       1  lig         0.4249
      9 H9         15.4285   22.8766   31.6651 H       1  lig         0.4256
     10 H10        15.3294   21.5457   32.6692 H       1  lig         0.4835
     11 H11        14.5171   16.1146   26.2158 H       1  lig         0.4236
     12 C1         14.3907   17.8879   29.4398 C.ar    1  lig        -0.1098
     13 C2         16.5623   18.6679   28.8583 C.ar    1  lig        -0.0948
     14 C3         14.4335   17.0665   28.3471 C.ar    1  lig        -0.2079
     15 C4         16.5993   17.8717   27.7296 C.ar    1  lig        -0.1468
     16 C5         15.4539   18.6981   29.6968 C.ar    1  lig        -0.1510
     17 C6         15.4931   17.0684   27.4791 C.ar    1  lig         0.1263
     18 C7         13.5446   21.2060   30.6505 C.2     1  lig         0.9365
     19 C8         15.4254   19.5952   30.9196 C.3     1  lig        -0.0459
     20 C9         15.0485   21.0550   30.6647 C.3     1  lig        -0.0743
     21 N1         15.6622   21.8629   31.7181 N.4     1  lig        -0.8330
     22 O1         13.1100   21.9202   29.7496 O.co2   1  lig        -0.7110
     23 O2         12.7829   20.6741   31.5082 O.co2   1  lig        -0.8016
     24 O3         15.4685   16.2639   26.4925 O.3     1  lig        -0.4958
@<TRIPOS>BOND
     1    20    21    1
     2     8    21    1
     3     9    21    1
     4    10    21    1
     5    18    20    1
     6    19    20    1
     7     7    20    1
     8    18    23    1
     9    18    22    1
    10    16    19    1
    11     5    19    1
    12     6    19    1
    13    12    16   ar
    14    13    16   ar
    15    12    14   ar
    16     1    12    1
    17    13    15   ar
    18     2    13    1
    19    14    17   ar
    20     3    14    1
    21    15    17   ar
    22     4    15    1
    23    17    24    1
    24    11    24    1
@<TRIPOS>SUBSTRUCTURE
     1 lig         1 TEMP              0 ****  ****    0 ROOT


########## Name:		ligand
########## HA_RMSDs:		10.4555
########## HA_RMSDh:		10.3794
########## HA_RMSDm:		8.8131
########## Cluster Size:	1
##########    Grid Score:          -16.666771
##########      Grid_vdw:          -13.702240
##########       Grid_es:           -2.964530
##########    Int_energy:            3.178193

@<TRIPOS>MOLECULE
ligand
 24 24 1 0 0
SMALL
No Charge or Current Charge


@<TRIPOS>ATOM
      1 H1         13.7968   10.7702   21.4739 H       1  lig         0.1313
      2 H2         14.6477   11.8432   25.5189 H       1  lig         0.1473
      3 H3         11.4862   11.4760   21.8107 H       1  lig         0.1394
      4 H4         12.3020   12.5089   25.8811 H       1  lig         0.1574
      5 H5         16.1115   11.1848   22.2909 H       1  lig         0.1170
      6 H6         16.4531   11.3330   23.9846 H       1  lig         0.0678
      7 H7         17.1465    9.1088   23.3198 H       1  lig         0.0912
      8 H8         15.7926    9.0300   21.2922 H       1  lig         0.4249
      9 H9         15.5195    7.6499   22.1835 H       1  lig         0.4256
     10 H10        14.3957    8.8851   22.2016 H       1  lig         0.4835
     11 H11        10.0710   12.2338   23.0612 H       1  lig         0.4236
     12 C1         13.4815   11.1438   22.4461 C.ar    1  lig        -0.1098
     13 C2         13.9342   11.7547   24.7010 C.ar    1  lig        -0.0948
     14 C3         12.1878   11.5449   22.6361 C.ar    1  lig        -0.2079
     15 C4         12.6204   12.1250   24.9157 C.ar    1  lig        -0.1468
     16 C5         14.3599   11.2412   23.4813 C.ar    1  lig        -0.1510
     17 C6         11.7391   11.9975   23.8485 C.ar    1  lig         0.1263
     18 C7         15.5485    8.7662   24.6577 C.2     1  lig         0.9365
     19 C8         15.8025   10.8210   23.2730 C.3     1  lig        -0.0459
     20 C9         16.0758    9.3187   23.3533 C.3     1  lig        -0.0743
     21 N1         15.4334    8.6878   22.2010 N.4     1  lig        -0.8330
     22 O1         14.6162    7.9742   24.5389 O.co2   1  lig        -0.7110
     23 O2         15.9972    9.1056   25.7901 O.co2   1  lig        -0.8016
     24 O3         10.5248   12.3684   23.9444 O.3     1  lig        -0.4958
@<TRIPOS>BOND
     1    20    21    1
     2     8    21    1
     3     9    21    1
     4    10    21    1
     5    18    20    1
     6    19    20    1
     7     7    20    1
     8    18    23    1
     9    18    22    1
    10    16    19    1
    11     5    19    1
    12     6    19    1
    13    12    16   ar
    14    13    16   ar
    15    12    14   ar
    16     1    12    1
    17    13    15   ar
    18     2    13    1
    19    14    17   ar
    20     3    14    1
    21    15    17   ar
    22     4    15    1
    23    17    24    1
    24    11    24    1
@<TRIPOS>SUBSTRUCTURE
     1 lig         1 TEMP              0 ****  ****    0 ROOT


########## Name:		ligand
########## HA_RMSDs:		10.5687
########## HA_RMSDh:		10.4898
########## HA_RMSDm:		8.0829
########## Cluster Size:	1
##########    Grid Score:          -16.627573
##########      Grid_vdw:          -13.803810
##########       Grid_es:           -2.823762
##########    Int_energy:            2.166430

@<TRIPOS>MOLECULE
ligand
 24 24 1 0 0
SMALL
No Charge or Current Charge


@<TRIPOS>ATOM
      1 H1         13.3617   12.5077   26.1597 H       1  lig         0.1313
      2 H2         17.1308   12.9323   24.1974 H       1  lig         0.1473
      3 H3         12.5959   11.1150   24.3092 H       1  lig         0.1394
      4 H4         16.3451   11.5691   22.2997 H       1  lig         0.1574
      5 H5         15.2233   13.3673   27.3300 H       1  lig         0.1170
      6 H6         16.8197   13.4548   26.6583 H       1  lig         0.0678
      7 H7         14.5882   15.4576   26.0333 H       1  lig         0.0912
      8 H8         16.2235   15.1408   24.2513 H       1  lig         0.4249
      9 H9         16.4814   16.6206   24.9704 H       1  lig         0.4256
     10 H10        17.4810   15.3343   25.3380 H       1  lig         0.4835
     11 H11        14.5998   10.4689   21.5298 H       1  lig         0.4236
     12 C1         14.0236   12.3148   25.3177 C.ar    1  lig        -0.1098
     13 C2         16.1181   12.5322   24.2093 C.ar    1  lig        -0.0948
     14 C3         13.5984   11.5302   24.2813 C.ar    1  lig        -0.2079
     15 C4         15.6852   11.7741   23.1382 C.ar    1  lig        -0.1468
     16 C5         15.2850   12.8252   25.2829 C.ar    1  lig        -0.1510
     17 C6         14.3866   11.2810   23.1891 C.ar    1  lig         0.1263
     18 C7         15.9985   15.8988   27.5423 C.2     1  lig         0.9365
     19 C8         15.7735   13.6770   26.4391 C.3     1  lig        -0.0459
     20 C9         15.6207   15.1881   26.2629 C.3     1  lig        -0.0743
     21 N1         16.4750   15.5942   25.1475 N.4     1  lig        -0.8330
     22 O1         15.3792   16.9395   27.7522 O.co2   1  lig        -0.7110
     23 O2         16.8993   15.4869   28.3282 O.co2   1  lig        -0.8016
     24 O3         13.9278   10.5278   22.2708 O.3     1  lig        -0.4958
@<TRIPOS>BOND
     1    20    21    1
     2     8    21    1
     3     9    21    1
     4    10    21    1
     5    18    20    1
     6    19    20    1
     7     7    20    1
     8    18    23    1
     9    18    22    1
    10    16    19    1
    11     5    19    1
    12     6    19    1
    13    12    16   ar
    14    13    16   ar
    15    12    14   ar
    16     1    12    1
    17    13    15   ar
    18     2    13    1
    19    14    17   ar
    20     3    14    1
    21    15    17   ar
    22     4    15    1
    23    17    24    1
    24    11    24    1
@<TRIPOS>SUBSTRUCTURE
     1 lig         1 TEMP              0 ****  ****    0 ROOT


########## Name:		ligand
########## HA_RMSDs:		14.8152
########## HA_RMSDh:		14.7304
########## HA_RMSDm:		12.7080
########## Cluster Size:	1
##########    Grid Score:          -16.592846
##########      Grid_vdw:          -14.017385
##########       Grid_es:           -2.575462
##########    Int_energy:            3.239431

@<TRIPOS>MOLECULE
ligand
 24 24 1 0 0
SMALL
No Charge or Current Charge


@<TRIPOS>ATOM
      1 H1          8.9083    5.3149   21.6933 H       1  lig         0.1313
      2 H2         10.9741    9.0153   22.2193 H       1  lig         0.1473
      3 H3         10.3486    4.3116   23.3873 H       1  lig         0.1394
      4 H4         12.4670    7.9935   23.8938 H       1  lig         0.1574
      5 H5          9.5233    8.6636   20.3222 H       1  lig         0.1170
      6 H6          8.7516    7.1461   19.9921 H       1  lig         0.0678
      7 H7          7.1598    9.0567   20.5775 H       1  lig         0.0912
      8 H8          8.5604    9.9961   22.3398 H       1  lig         0.4249
      9 H9          7.0793    9.5864   22.9815 H       1  lig         0.4256
     10 H10         8.3997    8.5987   23.2457 H       1  lig         0.4835
     11 H11        13.0995    5.9153   24.6604 H       1  lig         0.4236
     12 C1          9.6876    5.9116   22.1633 C.ar    1  lig        -0.1098
     13 C2         10.8485    7.9649   22.4778 C.ar    1  lig        -0.0948
     14 C3         10.4932    5.3528   23.1169 C.ar    1  lig        -0.2079
     15 C4         11.6940    7.3999   23.4133 C.ar    1  lig        -0.1468
     16 C5          9.8664    7.2204   21.8346 C.ar    1  lig        -0.1510
     17 C6         11.5032    6.0571   23.7169 C.ar    1  lig         0.1263
     18 C7          6.6804    7.2779   21.6102 C.2     1  lig         0.9365
     19 C8          8.9622    7.8550   20.7951 C.3     1  lig        -0.0459
     20 C9          7.6368    8.4110   21.3170 C.3     1  lig        -0.0743
     21 N1          7.9258    9.1972   22.5157 N.4     1  lig        -0.8330
     22 O1          6.6668    6.9094   22.7827 O.co2   1  lig        -0.7110
     23 O2          5.9684    6.7207   20.7262 O.co2   1  lig        -0.8016
     24 O3         12.2015    5.4738   24.6077 O.3     1  lig        -0.4958
@<TRIPOS>BOND
     1    20    21    1
     2     8    21    1
     3     9    21    1
     4    10    21    1
     5    18    20    1
     6    19    20    1
     7     7    20    1
     8    18    23    1
     9    18    22    1
    10    16    19    1
    11     5    19    1
    12     6    19    1
    13    12    16   ar
    14    13    16   ar
    15    12    14   ar
    16     1    12    1
    17    13    15   ar
    18     2    13    1
    19    14    17   ar
    20     3    14    1
    21    15    17   ar
    22     4    15    1
    23    17    24    1
    24    11    24    1
@<TRIPOS>SUBSTRUCTURE
     1 lig         1 TEMP              0 ****  ****    0 ROOT


########## Name:		ligand
########## HA_RMSDs:		11.8200
########## HA_RMSDh:		11.7747
########## HA_RMSDm:		9.3599
########## Cluster Size:	1
##########    Grid Score:          -16.585098
##########      Grid_vdw:          -12.038353
##########       Grid_es:           -4.546746
##########    Int_energy:            1.485041

@<TRIPOS>MOLECULE
ligand
 24 24 1 0 0
SMALL
No Charge or Current Charge


@<TRIPOS>ATOM
      1 H1         18.0899   17.2985   28.7140 H       1  lig         0.1313
      2 H2         16.5005   13.3354   28.6408 H       1  lig         0.1473
      3 H3         17.9812   17.2582   31.1506 H       1  lig         0.1394
      4 H4         16.3392   13.3083   31.1005 H       1  lig         0.1574
      5 H5         17.9973   16.1817   26.7232 H       1  lig         0.1170
      6 H6         17.8866   14.4525   26.6524 H       1  lig         0.0678
      7 H7         15.2764   14.7944   26.7132 H       1  lig         0.0912
      8 H8         16.5913   14.0794   24.7870 H       1  lig         0.4249
      9 H9         15.4102   15.1374   24.2778 H       1  lig         0.4256
     10 H10        16.9860   15.6671   24.4366 H       1  lig         0.4835
     11 H11        17.4236   16.2712   32.8455 H       1  lig         0.4236
     12 C1         17.6989   16.4201   29.2237 C.ar    1  lig        -0.1098
     13 C2         16.8185   14.2094   29.2073 C.ar    1  lig        -0.0948
     14 C3         17.6415   16.3931   30.5900 C.ar    1  lig        -0.2079
     15 C4         16.7187   14.1866   30.5853 C.ar    1  lig        -0.1468
     16 C5         17.2809   15.3290   28.5254 C.ar    1  lig        -0.1510
     17 C6         17.1337   15.3204   31.2738 C.ar    1  lig         0.1263
     18 C7         15.5011   16.8660   26.3689 C.2     1  lig         0.9365
     19 C8         17.3628   15.3408   27.0108 C.3     1  lig        -0.0459
     20 C9         16.0280   15.4525   26.2733 C.3     1  lig        -0.0743
     21 N1         16.2526   15.0529   24.8846 N.4     1  lig        -0.8330
     22 O1         15.9062   17.6241   25.4903 O.co2   1  lig        -0.7110
     23 O2         14.7311   17.2617   27.2905 O.co2   1  lig        -0.8016
     24 O3         17.1278   15.3617   32.5464 O.3     1  lig        -0.4958
@<TRIPOS>BOND
     1    20    21    1
     2     8    21    1
     3     9    21    1
     4    10    21    1
     5    18    20    1
     6    19    20    1
     7     7    20    1
     8    18    23    1
     9    18    22    1
    10    16    19    1
    11     5    19    1
    12     6    19    1
    13    12    16   ar
    14    13    16   ar
    15    12    14   ar
    16     1    12    1
    17    13    15   ar
    18     2    13    1
    19    14    17   ar
    20     3    14    1
    21    15    17   ar
    22     4    15    1
    23    17    24    1
    24    11    24    1
@<TRIPOS>SUBSTRUCTURE
     1 lig         1 TEMP              0 ****  ****    0 ROOT


########## Name:		ligand
########## HA_RMSDs:		13.1831
########## HA_RMSDh:		13.1231
########## HA_RMSDm:		11.3657
########## Cluster Size:	1
##########    Grid Score:          -16.479094
##########      Grid_vdw:          -14.679954
##########       Grid_es:           -1.799139
##########    Int_energy:            1.933041

@<TRIPOS>MOLECULE
ligand
 24 24 1 0 0
SMALL
No Charge or Current Charge


@<TRIPOS>ATOM
      1 H1          9.6293   11.3809   22.6924 H       1  lig         0.1313
      2 H2          7.9619   10.7133   26.5668 H       1  lig         0.1473
      3 H3         11.2933   12.8516   23.7016 H       1  lig         0.1394
      4 H4          9.6081   12.2394   27.5856 H       1  lig         0.1574
      5 H5          7.1347    9.5368   24.7608 H       1  lig         0.1170
      6 H6          6.8799   10.6198   23.4306 H       1  lig         0.0678
      7 H7          8.8712    9.4450   22.2424 H       1  lig         0.0912
      8 H8          6.5151    9.0742   21.7311 H       1  lig         0.4249
      9 H9          7.3296    7.6252   21.6272 H       1  lig         0.4256
     10 H10         6.3966    7.9579   22.9718 H       1  lig         0.4835
     11 H11        12.0640   13.6968   25.3853 H       1  lig         0.4236
     12 C1          9.6096   11.5647   23.7648 C.ar    1  lig        -0.1098
     13 C2          8.7012   11.2021   25.9342 C.ar    1  lig        -0.0948
     14 C3         10.5445   12.3849   24.3338 C.ar    1  lig        -0.2079
     15 C4          9.6160   12.0603   26.5139 C.ar    1  lig        -0.1468
     16 C5          8.6786   10.9740   24.5631 C.ar    1  lig        -0.1510
     17 C6         10.5435   12.6658   25.6744 C.ar    1  lig         0.1263
     18 C7          9.0017    7.9605   23.7392 C.2     1  lig         0.9365
     19 C8          7.6524   10.0441   23.9441 C.3     1  lig        -0.0459
     20 C9          8.2031    8.9942   22.9786 C.3     1  lig        -0.0743
     21 N1          7.0672    8.3925   22.2811 N.4     1  lig        -0.8330
     22 O1          8.3318    7.0531   24.2274 O.co2   1  lig        -0.7110
     23 O2         10.2545    8.0264   23.8977 O.co2   1  lig        -0.8016
     24 O3         11.4558   13.4260   26.1342 O.3     1  lig        -0.4958
@<TRIPOS>BOND
     1    20    21    1
     2     8    21    1
     3     9    21    1
     4    10    21    1
     5    18    20    1
     6    19    20    1
     7     7    20    1
     8    18    23    1
     9    18    22    1
    10    16    19    1
    11     5    19    1
    12     6    19    1
    13    12    16   ar
    14    13    16   ar
    15    12    14   ar
    16     1    12    1
    17    13    15   ar
    18     2    13    1
    19    14    17   ar
    20     3    14    1
    21    15    17   ar
    22     4    15    1
    23    17    24    1
    24    11    24    1
@<TRIPOS>SUBSTRUCTURE
     1 lig         1 TEMP              0 ****  ****    0 ROOT


########## Name:		ligand
########## HA_RMSDs:		10.7860
########## HA_RMSDh:		10.6976
########## HA_RMSDm:		8.1746
########## Cluster Size:	1
##########    Grid Score:          -16.466625
##########      Grid_vdw:          -14.088945
##########       Grid_es:           -2.377680
##########    Int_energy:            2.160405

@<TRIPOS>MOLECULE
ligand
 24 24 1 0 0
SMALL
No Charge or Current Charge


@<TRIPOS>ATOM
      1 H1         18.5838   14.4600   26.3623 H       1  lig         0.1313
      2 H2         14.3784   13.8814   26.8277 H       1  lig         0.1473
      3 H3         18.5113   13.0960   24.3413 H       1  lig         0.1394
      4 H4         14.3077   12.4590   24.8156 H       1  lig         0.1574
      5 H5         15.4921   15.3022   28.2677 H       1  lig         0.1170
      6 H6         16.9494   14.5391   28.8165 H       1  lig         0.0678
      7 H7         18.0634   16.3635   27.0993 H       1  lig         0.0912
      8 H8         18.5548   16.0048   29.4615 H       1  lig         0.4249
      9 H9         18.3781   17.6373   29.1837 H       1  lig         0.4256
     10 H10        17.1372   16.7784   29.8988 H       1  lig         0.4835
     11 H11        15.6450   11.4286   23.3369 H       1  lig         0.4236
     12 C1         17.6414   14.0231   26.0380 C.ar    1  lig        -0.1098
     13 C2         15.2966   13.6926   26.2736 C.ar    1  lig        -0.0948
     14 C3         17.5972   13.2620   24.9025 C.ar    1  lig        -0.2079
     15 C4         15.2476   12.8893   25.1504 C.ar    1  lig        -0.1468
     16 C5         16.4906   14.2365   26.7330 C.ar    1  lig        -0.1510
     17 C6         16.4397   12.6709   24.4699 C.ar    1  lig         0.1263
     18 C7         16.3220   17.5162   27.4154 C.2     1  lig         0.9365
     19 C8         16.5257   15.0988   27.9804 C.3     1  lig        -0.0459
     20 C9         17.2741   16.4259   27.8507 C.3     1  lig        -0.0743
     21 N1         17.8788   16.7238   29.1485 N.4     1  lig        -0.8330
     22 O1         16.4875   18.5958   27.9789 O.co2   1  lig        -0.7110
     23 O2         15.4028   17.3398   26.5653 O.co2   1  lig        -0.8016
     24 O3         16.4733   11.9897   23.3947 O.3     1  lig        -0.4958
@<TRIPOS>BOND
     1    20    21    1
     2     8    21    1
     3     9    21    1
     4    10    21    1
     5    18    20    1
     6    19    20    1
     7     7    20    1
     8    18    23    1
     9    18    22    1
    10    16    19    1
    11     5    19    1
    12     6    19    1
    13    12    16   ar
    14    13    16   ar
    15    12    14   ar
    16     1    12    1
    17    13    15   ar
    18     2    13    1
    19    14    17   ar
    20     3    14    1
    21    15    17   ar
    22     4    15    1
    23    17    24    1
    24    11    24    1
@<TRIPOS>SUBSTRUCTURE
     1 lig         1 TEMP              0 ****  ****    0 ROOT


########## Name:		ligand
########## HA_RMSDs:		11.4027
########## HA_RMSDh:		11.3191
########## HA_RMSDm:		7.5036
########## Cluster Size:	1
##########    Grid Score:          -16.460999
##########      Grid_vdw:          -14.829874
##########       Grid_es:           -1.631124
##########    Int_energy:            2.138871

@<TRIPOS>MOLECULE
ligand
 24 24 1 0 0
SMALL
No Charge or Current Charge


@<TRIPOS>ATOM
      1 H1         16.5546   14.7649   28.8494 H       1  lig         0.1313
      2 H2         15.9175   17.3168   25.4850 H       1  lig         0.1473
      3 H3         17.1465   12.9581   27.3212 H       1  lig         0.1394
      4 H4         16.4637   15.4803   23.9340 H       1  lig         0.1574
      5 H5         16.3608   17.1030   29.1431 H       1  lig         0.1170
      6 H6         16.2173   18.2245   27.8282 H       1  lig         0.0678
      7 H7         13.7633   17.6215   27.6004 H       1  lig         0.0912
      8 H8         14.5388   19.4961   28.9548 H       1  lig         0.4249
      9 H9         13.2179   18.8005   29.6930 H       1  lig         0.4256
     10 H10        14.7526   18.4871   30.2723 H       1  lig         0.4835
     11 H11        17.1934   13.4045   23.8664 H       1  lig         0.4236
     12 C1         16.5249   14.9337   27.7748 C.ar    1  lig        -0.1098
     13 C2         16.1822   16.3394   25.8855 C.ar    1  lig        -0.0948
     14 C3         16.8612   13.9238   26.9159 C.ar    1  lig        -0.2079
     15 C4         16.4811   15.3149   25.0078 C.ar    1  lig        -0.1468
     16 C5         16.1773   16.1458   27.2621 C.ar    1  lig        -0.1510
     17 C6         16.8138   14.0818   25.5562 C.ar    1  lig         0.1263
     18 C7         13.7936   16.2011   29.1631 C.2     1  lig         0.9365
     19 C8         15.8258   17.2787   28.2076 C.3     1  lig        -0.0459
     20 C9         14.3377   17.4525   28.5130 C.3     1  lig        -0.0743
     21 N1         14.1960   18.6185   29.3842 N.4     1  lig        -0.8330
     22 O1         13.9153   16.1645   30.3856 O.co2   1  lig        -0.7110
     23 O2         13.2810   15.2450   28.5135 O.co2   1  lig        -0.8016
     24 O3         17.1568   13.1007   24.8206 O.3     1  lig        -0.4958
@<TRIPOS>BOND
     1    20    21    1
     2     8    21    1
     3     9    21    1
     4    10    21    1
     5    18    20    1
     6    19    20    1
     7     7    20    1
     8    18    23    1
     9    18    22    1
    10    16    19    1
    11     5    19    1
    12     6    19    1
    13    12    16   ar
    14    13    16   ar
    15    12    14   ar
    16     1    12    1
    17    13    15   ar
    18     2    13    1
    19    14    17   ar
    20     3    14    1
    21    15    17   ar
    22     4    15    1
    23    17    24    1
    24    11    24    1
@<TRIPOS>SUBSTRUCTURE
     1 lig         1 TEMP              0 ****  ****    0 ROOT


########## Name:		ligand
########## HA_RMSDs:		12.1157
########## HA_RMSDh:		12.0086
########## HA_RMSDm:		10.6885
########## Cluster Size:	1
##########    Grid Score:          -16.450359
##########      Grid_vdw:          -13.810987
##########       Grid_es:           -2.639372
##########    Int_energy:            1.580904

@<TRIPOS>MOLECULE
ligand
 24 24 1 0 0
SMALL
No Charge or Current Charge


@<TRIPOS>ATOM
      1 H1          9.4300    9.8337   24.1875 H       1  lig         0.1313
      2 H2         13.6074   10.5453   23.6586 H       1  lig         0.1473
      3 H3          9.2274    9.4543   21.7864 H       1  lig         0.1394
      4 H4         13.3995   10.2147   21.2246 H       1  lig         0.1574
      5 H5         10.6607   10.4009   25.9957 H       1  lig         0.1170
      6 H6         12.2139    9.6300   26.0193 H       1  lig         0.0678
      7 H7         13.1678   12.0127   25.3505 H       1  lig         0.0912
      8 H8         13.4785   10.8618   27.4786 H       1  lig         0.4249
      9 H9         13.2006   12.4779   27.7690 H       1  lig         0.4256
     10 H10        11.9726   11.3702   28.0011 H       1  lig         0.4835
     11 H11        11.6503   10.2400   19.5830 H       1  lig         0.4236
     12 C1         10.3066    9.9260   23.5494 C.ar    1  lig        -0.1098
     13 C2         12.6331   10.3123   23.2318 C.ar    1  lig        -0.0948
     14 C3         10.1966    9.7089   22.2035 C.ar    1  lig        -0.2079
     15 C4         12.5259   10.1345   21.8657 C.ar    1  lig        -0.1468
     16 C5         11.5260   10.2354   24.0690 C.ar    1  lig        -0.1510
     17 C6         11.2663    9.8388   21.3578 C.ar    1  lig         0.1263
     18 C7         11.3215   12.9046   25.8569 C.2     1  lig         0.9365
     19 C8         11.6621   10.4546   25.5638 C.3     1  lig        -0.0459
     20 C9         12.3138   11.7718   25.9862 C.3     1  lig        -0.0743
     21 N1         12.7785   11.6160   27.3640 N.4     1  lig        -0.8330
     22 O1         10.7357   13.1938   26.8980 O.co2   1  lig        -0.7110
     23 O2         11.0777   13.4960   24.7662 O.co2   1  lig        -0.8016
     24 O3         11.0900    9.6049   20.1187 O.3     1  lig        -0.4958
@<TRIPOS>BOND
     1    20    21    1
     2     8    21    1
     3     9    21    1
     4    10    21    1
     5    18    20    1
     6    19    20    1
     7     7    20    1
     8    18    23    1
     9    18    22    1
    10    16    19    1
    11     5    19    1
    12     6    19    1
    13    12    16   ar
    14    13    16   ar
    15    12    14   ar
    16     1    12    1
    17    13    15   ar
    18     2    13    1
    19    14    17   ar
    20     3    14    1
    21    15    17   ar
    22     4    15    1
    23    17    24    1
    24    11    24    1
@<TRIPOS>SUBSTRUCTURE
     1 lig         1 TEMP              0 ****  ****    0 ROOT


########## Name:		ligand
########## HA_RMSDs:		15.3361
########## HA_RMSDh:		15.2771
########## HA_RMSDm:		12.3318
########## Cluster Size:	1
##########    Grid Score:          -16.398476
##########      Grid_vdw:          -15.932734
##########       Grid_es:           -0.465742
##########    Int_energy:            1.970522

@<TRIPOS>MOLECULE
ligand
 24 24 1 0 0
SMALL
No Charge or Current Charge


@<TRIPOS>ATOM
      1 H1         26.6811    5.1223   13.2145 H       1  lig         0.1313
      2 H2         22.5202    5.0588   14.1735 H       1  lig         0.1473
      3 H3         26.4144    2.9817   12.0756 H       1  lig         0.1394
      4 H4         22.2550    2.8707   13.0696 H       1  lig         0.1574
      5 H5         23.8278    6.7820   14.9640 H       1  lig         0.1170
      6 H6         25.5031    6.4762   15.2912 H       1  lig         0.0678
      7 H7         25.9956    7.4559   12.9157 H       1  lig         0.0912
      8 H8         26.4169    8.5857   15.0362 H       1  lig         0.4249
      9 H9         25.8490    9.6950   13.9315 H       1  lig         0.4256
     10 H10        24.8254    9.0970   15.1077 H       1  lig         0.4835
     11 H11        25.1827    1.2325   11.9110 H       1  lig         0.4236
     12 C1         25.7071    4.6374   13.1953 C.ar    1  lig        -0.1098
     13 C2         23.3850    4.5839   13.7126 C.ar    1  lig        -0.0948
     14 C3         25.5538    3.4395   12.5531 C.ar    1  lig        -0.2079
     15 C4         23.2273    3.3548   13.1014 C.ar    1  lig        -0.1468
     16 C5         24.6229    5.2123   13.7842 C.ar    1  lig        -0.1510
     17 C6         24.3537    2.7799   12.5247 C.ar    1  lig         0.1263
     18 C7         24.0028    8.1245   12.7091 C.2     1  lig         0.9365
     19 C8         24.7783    6.5521   14.4783 C.3     1  lig        -0.0459
     20 C9         25.1720    7.7249   13.5797 C.3     1  lig        -0.0743
     21 N1         25.6010    8.8232   14.4448 N.4     1  lig        -0.8330
     22 O1         24.2975    8.3897   11.5457 O.co2   1  lig        -0.7110
     23 O2         22.8158    8.2154   13.1353 O.co2   1  lig        -0.8016
     24 O3         24.2845    1.6764   11.8933 O.3     1  lig        -0.4958
@<TRIPOS>BOND
     1    20    21    1
     2     8    21    1
     3     9    21    1
     4    10    21    1
     5    18    20    1
     6    19    20    1
     7     7    20    1
     8    18    23    1
     9    18    22    1
    10    16    19    1
    11     5    19    1
    12     6    19    1
    13    12    16   ar
    14    13    16   ar
    15    12    14   ar
    16     1    12    1
    17    13    15   ar
    18     2    13    1
    19    14    17   ar
    20     3    14    1
    21    15    17   ar
    22     4    15    1
    23    17    24    1
    24    11    24    1
@<TRIPOS>SUBSTRUCTURE
     1 lig         1 TEMP              0 ****  ****    0 ROOT


########## Name:		ligand
########## HA_RMSDs:		14.7695
########## HA_RMSDh:		14.6669
########## HA_RMSDm:		12.3927
########## Cluster Size:	1
##########    Grid Score:          -16.271343
##########      Grid_vdw:          -16.938416
##########       Grid_es:            0.667073
##########    Int_energy:            3.511334

@<TRIPOS>MOLECULE
ligand
 24 24 1 0 0
SMALL
No Charge or Current Charge


@<TRIPOS>ATOM
      1 H1          6.7637    8.1066   20.8948 H       1  lig         0.1313
      2 H2          9.8760    6.1441   23.0627 H       1  lig         0.1473
      3 H3          5.8222    5.9252   20.3426 H       1  lig         0.1394
      4 H4          8.9591    3.9355   22.4642 H       1  lig         0.1574
      5 H5          8.4627    9.3631   21.7442 H       1  lig         0.1170
      6 H6          8.7207    8.8706   23.3868 H       1  lig         0.0678
      7 H7         11.0220    7.9460   22.6482 H       1  lig         0.0912
      8 H8         10.6825   10.0702   23.7984 H       1  lig         0.4249
      9 H9         11.8951   10.2490   22.6709 H       1  lig         0.4256
     10 H10        10.3656   10.8346   22.3442 H       1  lig         0.4835
     11 H11         5.9778    3.8957   20.4360 H       1  lig         0.4236
     12 C1          7.2581    7.2008   21.2403 C.ar    1  lig        -0.1098
     13 C2          8.9789    6.0860   22.4481 C.ar    1  lig        -0.0948
     14 C3          6.7294    5.9766   20.9362 C.ar    1  lig        -0.2079
     15 C4          8.4761    4.8433   22.1132 C.ar    1  lig        -0.1468
     16 C5          8.3904    7.2605   21.9933 C.ar    1  lig        -0.1510
     17 C6          7.3302    4.8095   21.3272 C.ar    1  lig         0.1263
     18 C7         10.8244    8.7259   20.6954 C.2     1  lig         0.9365
     19 C8          8.9707    8.6144   22.3554 C.3     1  lig        -0.0459
     20 C9         10.4808    8.7627   22.1669 C.3     1  lig        -0.0743
     21 N1         10.8839   10.0259   22.7838 N.4     1  lig        -0.8330
     22 O1         11.8258    9.3683   20.3869 O.co2   1  lig        -0.7110
     23 O2         10.1299    8.1154   19.8329 O.co2   1  lig        -0.8016
     24 O3          6.7700    3.7080   21.0201 O.3     1  lig        -0.4958
@<TRIPOS>BOND
     1    20    21    1
     2     8    21    1
     3     9    21    1
     4    10    21    1
     5    18    20    1
     6    19    20    1
     7     7    20    1
     8    18    23    1
     9    18    22    1
    10    16    19    1
    11     5    19    1
    12     6    19    1
    13    12    16   ar
    14    13    16   ar
    15    12    14   ar
    16     1    12    1
    17    13    15   ar
    18     2    13    1
    19    14    17   ar
    20     3    14    1
    21    15    17   ar
    22     4    15    1
    23    17    24    1
    24    11    24    1
@<TRIPOS>SUBSTRUCTURE
     1 lig         1 TEMP              0 ****  ****    0 ROOT


########## Name:		ligand
########## HA_RMSDs:		11.5504
########## HA_RMSDh:		11.4923
########## HA_RMSDm:		8.3684
########## Cluster Size:	1
##########    Grid Score:          -16.270206
##########      Grid_vdw:          -10.582376
##########       Grid_es:           -5.687830
##########    Int_energy:            1.009554

@<TRIPOS>MOLECULE
ligand
 24 24 1 0 0
SMALL
No Charge or Current Charge


@<TRIPOS>ATOM
      1 H1         23.1213   14.1392   24.8653 H       1  lig         0.1313
      2 H2         22.0401   10.0577   24.2251 H       1  lig         0.1473
      3 H3         20.7526   14.7155   24.9512 H       1  lig         0.1394
      4 H4         19.6454   10.6418   24.2585 H       1  lig         0.1574
      5 H5         24.3027   10.8246   23.8357 H       1  lig         0.1170
      6 H6         24.7748   12.4862   23.9894 H       1  lig         0.0678
      7 H7         24.0901   11.1301   26.5795 H       1  lig         0.0912
      8 H8         24.9145   13.4185   26.3953 H       1  lig         0.4249
      9 H9         26.0565   12.4891   27.1735 H       1  lig         0.4256
     10 H10        26.2681   12.8897   25.5661 H       1  lig         0.4835
     11 H11        18.6440   13.7421   23.9047 H       1  lig         0.4236
     12 C1         22.3705   13.3640   24.7251 C.ar    1  lig        -0.1098
     13 C2         21.7446   11.0949   24.3759 C.ar    1  lig        -0.0948
     14 C3         21.0417   13.6838   24.7778 C.ar    1  lig        -0.2079
     15 C4         20.4000   11.4130   24.3872 C.ar    1  lig        -0.1468
     16 C5         22.7280   12.0672   24.5172 C.ar    1  lig        -0.1510
     17 C6         20.0617   12.7471   24.5817 C.ar    1  lig         0.1263
     18 C7         25.7850   10.2209   25.7070 C.2     1  lig         0.9365
     19 C8         24.1992   11.6994   24.4809 C.3     1  lig        -0.0459
     20 C9         24.8423   11.3956   25.8344 C.3     1  lig        -0.0743
     21 N1         25.5404   12.6024   26.2758 N.4     1  lig        -0.8330
     22 O1         25.3637    9.1714   26.1883 O.co2   1  lig        -0.7110
     23 O2         26.9316   10.3018   25.1800 O.co2   1  lig        -0.8016
     24 O3         18.8460   13.1172   24.6616 O.3     1  lig        -0.4958
@<TRIPOS>BOND
     1    20    21    1
     2     8    21    1
     3     9    21    1
     4    10    21    1
     5    18    20    1
     6    19    20    1
     7     7    20    1
     8    18    23    1
     9    18    22    1
    10    16    19    1
    11     5    19    1
    12     6    19    1
    13    12    16   ar
    14    13    16   ar
    15    12    14   ar
    16     1    12    1
    17    13    15   ar
    18     2    13    1
    19    14    17   ar
    20     3    14    1
    21    15    17   ar
    22     4    15    1
    23    17    24    1
    24    11    24    1
@<TRIPOS>SUBSTRUCTURE
     1 lig         1 TEMP              0 ****  ****    0 ROOT


########## Name:		ligand
########## HA_RMSDs:		16.0139
########## HA_RMSDh:		15.9942
########## HA_RMSDm:		13.7152
########## Cluster Size:	1
##########    Grid Score:          -16.248751
##########      Grid_vdw:          -15.387707
##########       Grid_es:           -0.861044
##########    Int_energy:            1.361778

@<TRIPOS>MOLECULE
ligand
 24 24 1 0 0
SMALL
No Charge or Current Charge


@<TRIPOS>ATOM
      1 H1         24.2466    3.5578   12.5243 H       1  lig         0.1313
      2 H2         26.3174    7.2922   12.5731 H       1  lig         0.1473
      3 H3         22.1310    4.7721   12.5131 H       1  lig         0.1394
      4 H4         24.1828    8.5245   12.6148 H       1  lig         0.1574
      5 H5         27.4543    5.1998   13.1178 H       1  lig         0.1170
      6 H6         26.6430    3.6671   13.1222 H       1  lig         0.0678
      7 H7         26.7466    4.7953   10.3930 H       1  lig         0.0912
      8 H8         26.2342    2.4895   11.0019 H       1  lig         0.4249
      9 H9         27.6169    2.5133   10.0739 H       1  lig         0.4256
     10 H10        27.7319    2.3232   11.7291 H       1  lig         0.4835
     11 H11        21.1620    6.5622   12.4790 H       1  lig         0.4236
     12 C1         24.2471    4.6457   12.5501 C.ar    1  lig        -0.1098
     13 C2         25.3799    6.7383   12.5706 C.ar    1  lig        -0.0948
     14 C3         23.0624    5.3290   12.5389 C.ar    1  lig        -0.2079
     15 C4         24.1887    7.4380   12.5999 C.ar    1  lig        -0.1468
     16 C5         25.4126    5.3486   12.5726 C.ar    1  lig        -0.1510
     17 C6         23.0131    6.6966   12.5961 C.ar    1  lig         0.1263
     18 C7         28.7383    4.7648   11.0950 C.2     1  lig         0.9365
     19 C8         26.7316    4.5996   12.5613 C.3     1  lig        -0.0459
     20 C9         27.3069    4.2866   11.1796 C.3     1  lig        -0.0743
     21 N1         27.2072    2.8423   10.9733 N.4     1  lig        -0.8330
     22 O1         28.9900    5.4564   10.1107 O.co2   1  lig        -0.7110
     23 O2         29.6258    4.4600   11.9425 O.co2   1  lig        -0.8016
     24 O3         21.8730    7.2629   12.5655 O.3     1  lig        -0.4958
@<TRIPOS>BOND
     1    20    21    1
     2     8    21    1
     3     9    21    1
     4    10    21    1
     5    18    20    1
     6    19    20    1
     7     7    20    1
     8    18    23    1
     9    18    22    1
    10    16    19    1
    11     5    19    1
    12     6    19    1
    13    12    16   ar
    14    13    16   ar
    15    12    14   ar
    16     1    12    1
    17    13    15   ar
    18     2    13    1
    19    14    17   ar
    20     3    14    1
    21    15    17   ar
    22     4    15    1
    23    17    24    1
    24    11    24    1
@<TRIPOS>SUBSTRUCTURE
     1 lig         1 TEMP              0 ****  ****    0 ROOT


########## Name:		ligand
########## HA_RMSDs:		15.0847
########## HA_RMSDh:		15.0049
########## HA_RMSDm:		12.4564
########## Cluster Size:	1
##########    Grid Score:          -16.238544
##########      Grid_vdw:          -12.241960
##########       Grid_es:           -3.996585
##########    Int_energy:            3.156462

@<TRIPOS>MOLECULE
ligand
 24 24 1 0 0
SMALL
No Charge or Current Charge


@<TRIPOS>ATOM
      1 H1         25.2314    6.5560   11.7154 H       1  lig         0.1313
      2 H2         26.1321    3.7985   14.8494 H       1  lig         0.1473
      3 H3         27.2442    7.8091   12.2885 H       1  lig         0.1394
      4 H4         28.1390    5.0896   15.4672 H       1  lig         0.1574
      5 H5         24.0656    4.5414   11.8556 H       1  lig         0.1170
      6 H6         24.5186    3.2490   12.9194 H       1  lig         0.0678
      7 H7         23.1117    4.0356   14.6975 H       1  lig         0.0912
      8 H8         21.9145    3.1329   12.7735 H       1  lig         0.4249
      9 H9         20.9897    4.3237   13.4808 H       1  lig         0.4256
     10 H10        21.8355    4.6529   12.0789 H       1  lig         0.4835
     11 H11        28.7469    8.1424   13.6873 H       1  lig         0.4236
     12 C1         25.8562    6.2268   12.5433 C.ar    1  lig        -0.1098
     13 C2         26.3815    4.6993   14.2907 C.ar    1  lig        -0.0948
     14 C3         26.9880    6.9248   12.8635 C.ar    1  lig        -0.2079
     15 C4         27.5053    5.4193   14.6485 C.ar    1  lig        -0.1468
     16 C5         25.5443    5.1130   13.2609 C.ar    1  lig        -0.1510
     17 C6         27.7909    6.5633   13.9127 C.ar    1  lig         0.1263
     18 C7         22.9849    6.0573   14.0994 C.2     1  lig         0.9365
     19 C8         24.3038    4.3192   12.8978 C.3     1  lig        -0.0459
     20 C9         23.0675    4.5874   13.7567 C.3     1  lig        -0.0743
     21 N1         21.8967    4.1426   13.0017 N.4     1  lig        -0.8330
     22 O1         22.9278    6.3002   15.3028 O.co2   1  lig        -0.7110
     23 O2         22.9439    6.9742   13.2296 O.co2   1  lig        -0.8016
     24 O3         28.8369    7.2529   14.1399 O.3     1  lig        -0.4958
@<TRIPOS>BOND
     1    20    21    1
     2     8    21    1
     3     9    21    1
     4    10    21    1
     5    18    20    1
     6    19    20    1
     7     7    20    1
     8    18    23    1
     9    18    22    1
    10    16    19    1
    11     5    19    1
    12     6    19    1
    13    12    16   ar
    14    13    16   ar
    15    12    14   ar
    16     1    12    1
    17    13    15   ar
    18     2    13    1
    19    14    17   ar
    20     3    14    1
    21    15    17   ar
    22     4    15    1
    23    17    24    1
    24    11    24    1
@<TRIPOS>SUBSTRUCTURE
     1 lig         1 TEMP              0 ****  ****    0 ROOT


########## Name:		ligand
########## HA_RMSDs:		10.4051
########## HA_RMSDh:		10.3975
########## HA_RMSDm:		8.7332
########## Cluster Size:	1
##########    Grid Score:          -16.196781
##########      Grid_vdw:          -11.030783
##########       Grid_es:           -5.165998
##########    Int_energy:            1.315853

@<TRIPOS>MOLECULE
ligand
 24 24 1 0 0
SMALL
No Charge or Current Charge


@<TRIPOS>ATOM
      1 H1         14.5583    8.1146   24.0955 H       1  lig         0.1313
      2 H2         16.8296   11.2023   22.2128 H       1  lig         0.1473
      3 H3         13.3483    9.8201   25.3514 H       1  lig         0.1394
      4 H4         15.6467   12.9273   23.5175 H       1  lig         0.1574
      5 H5         15.8342    7.6724   22.1146 H       1  lig         0.1170
      6 H6         16.7819    8.8786   21.3057 H       1  lig         0.0678
      7 H7         17.6366    7.7273   24.0050 H       1  lig         0.0912
      8 H8         18.6040    9.8495   23.2905 H       1  lig         0.4249
      9 H9         19.7666    8.6610   23.1940 H       1  lig         0.4256
     10 H10        19.0072    9.1934   21.8052 H       1  lig         0.4835
     11 H11        14.2832   13.1223   25.3585 H       1  lig         0.4236
     12 C1         14.8108    9.1648   23.9633 C.ar    1  lig        -0.1098
     13 C2         16.0597   10.9023   22.9221 C.ar    1  lig        -0.0948
     14 C3         14.1305   10.1233   24.6627 C.ar    1  lig        -0.2079
     15 C4         15.4065   11.8763   23.6529 C.ar    1  lig        -0.1468
     16 C5         15.7842    9.5506   23.0936 C.ar    1  lig        -0.1510
     17 C6         14.4306   11.4549   24.5484 C.ar    1  lig         0.1263
     18 C7         18.1951    6.6455   22.2791 C.2     1  lig         0.9365
     19 C8         16.5278    8.4960   22.2961 C.3     1  lig        -0.0459
     20 C9         17.7957    7.9416   22.9465 C.3     1  lig        -0.0743
     21 N1         18.8402    8.9575   22.8212 N.4     1  lig        -0.8330
     22 O1         18.7917    6.7809   21.2131 O.co2   1  lig        -0.7110
     23 O2         17.9170    5.5052   22.7494 O.co2   1  lig        -0.8016
     24 O3         13.7426   12.2901   25.2196 O.3     1  lig        -0.4958
@<TRIPOS>BOND
     1    20    21    1
     2     8    21    1
     3     9    21    1
     4    10    21    1
     5    18    20    1
     6    19    20    1
     7     7    20    1
     8    18    23    1
     9    18    22    1
    10    16    19    1
    11     5    19    1
    12     6    19    1
    13    12    16   ar
    14    13    16   ar
    15    12    14   ar
    16     1    12    1
    17    13    15   ar
    18     2    13    1
    19    14    17   ar
    20     3    14    1
    21    15    17   ar
    22     4    15    1
    23    17    24    1
    24    11    24    1
@<TRIPOS>SUBSTRUCTURE
     1 lig         1 TEMP              0 ****  ****    0 ROOT


########## Name:		ligand
########## HA_RMSDs:		10.3042
########## HA_RMSDh:		10.2199
########## HA_RMSDm:		8.4953
########## Cluster Size:	1
##########    Grid Score:          -16.174555
##########      Grid_vdw:          -12.897778
##########       Grid_es:           -3.276777
##########    Int_energy:            2.770591

@<TRIPOS>MOLECULE
ligand
 24 24 1 0 0
SMALL
No Charge or Current Charge


@<TRIPOS>ATOM
      1 H1         20.3984   11.0100   24.7229 H       1  lig         0.1313
      2 H2         20.0680   14.6387   26.9501 H       1  lig         0.1473
      3 H3         18.1032   11.3147   23.9550 H       1  lig         0.1394
      4 H4         17.7311   14.9249   26.2196 H       1  lig         0.1574
      5 H5         21.9085   13.1644   27.3080 H       1  lig         0.1170
      6 H6         21.9928   11.5740   26.6219 H       1  lig         0.0678
      7 H7         23.5823   13.7709   25.8805 H       1  lig         0.0912
      8 H8         21.6807   14.6322   24.6187 H       1  lig         0.4249
      9 H9         22.8582   14.1291   23.5537 H       1  lig         0.4256
     10 H10        21.5171   13.1705   23.8211 H       1  lig         0.4835
     11 H11        16.6072   13.0723   23.5987 H       1  lig         0.4236
     12 C1         19.8236   11.8691   25.0631 C.ar    1  lig        -0.1098
     13 C2         19.6190   13.8971   26.2911 C.ar    1  lig        -0.0948
     14 C3         18.5382   12.0449   24.6301 C.ar    1  lig        -0.2079
     15 C4         18.3067   14.0635   25.8919 C.ar    1  lig        -0.1468
     16 C5         20.3680   12.7926   25.9019 C.ar    1  lig        -0.1510
     17 C6         17.7681   13.0964   25.0513 C.ar    1  lig         0.1263
     18 C7         23.6733   11.9093   24.8869 C.2     1  lig         0.9365
     19 C8         21.8008   12.6184   26.3685 C.3     1  lig        -0.0459
     20 C9         22.8798   13.0917   25.3940 C.3     1  lig        -0.0743
     21 N1         22.2131   13.8020   24.3033 N.4     1  lig        -0.8330
     22 O1         23.1725   11.3310   23.9250 O.co2   1  lig        -0.7110
     23 O2         24.7504   11.5138   25.4180 O.co2   1  lig        -0.8016
     24 O3         16.5853   13.2024   24.5920 O.3     1  lig        -0.4958
@<TRIPOS>BOND
     1    20    21    1
     2     8    21    1
     3     9    21    1
     4    10    21    1
     5    18    20    1
     6    19    20    1
     7     7    20    1
     8    18    23    1
     9    18    22    1
    10    16    19    1
    11     5    19    1
    12     6    19    1
    13    12    16   ar
    14    13    16   ar
    15    12    14   ar
    16     1    12    1
    17    13    15   ar
    18     2    13    1
    19    14    17   ar
    20     3    14    1
    21    15    17   ar
    22     4    15    1
    23    17    24    1
    24    11    24    1
@<TRIPOS>SUBSTRUCTURE
     1 lig         1 TEMP              0 ****  ****    0 ROOT


########## Name:		ligand
########## HA_RMSDs:		14.0943
########## HA_RMSDh:		14.0336
########## HA_RMSDm:		12.1029
########## Cluster Size:	1
##########    Grid Score:          -16.132109
##########      Grid_vdw:          -14.003284
##########       Grid_es:           -2.128825
##########    Int_energy:            4.435632

@<TRIPOS>MOLECULE
ligand
 24 24 1 0 0
SMALL
No Charge or Current Charge


@<TRIPOS>ATOM
      1 H1         10.2133   10.1595   26.2976 H       1  lig         0.1313
      2 H2          6.8007   10.0492   23.7327 H       1  lig         0.1473
      3 H3         10.0134    7.7481   26.6073 H       1  lig         0.1394
      4 H4          6.5618    7.6209   24.0833 H       1  lig         0.1574
      5 H5          7.6742   12.1181   24.4368 H       1  lig         0.1170
      6 H6          8.7872   12.2601   25.7591 H       1  lig         0.0678
      7 H7          9.4396   13.0905   23.2843 H       1  lig         0.0912
      8 H8          9.1175   10.8687   22.3306 H       1  lig         0.4249
      9 H9         10.7249   11.2866   22.2071 H       1  lig         0.4256
     10 H10        10.2333   10.2227   23.3969 H       1  lig         0.4835
     11 H11         7.4292    5.9070   25.1634 H       1  lig         0.4236
     12 C1          9.4052    9.6167   25.8112 C.ar    1  lig        -0.1098
     13 C2          7.5060    9.5303   24.3801 C.ar    1  lig        -0.0948
     14 C3          9.2939    8.2639   25.9792 C.ar    1  lig        -0.2079
     15 C4          7.3601    8.1701   24.5748 C.ar    1  lig        -0.1468
     16 C5          8.5064   10.2575   25.0148 C.ar    1  lig        -0.1510
     17 C6          8.2790    7.5429   25.4080 C.ar    1  lig         0.1263
     18 C7         10.9930   12.5345   24.6030 C.2     1  lig         0.9365
     19 C8          8.6361   11.7540   24.8036 C.3     1  lig        -0.0459
     20 C9          9.7348   12.1964   23.8366 C.3     1  lig        -0.0743
     21 N1          9.9573   11.1061   22.8877 N.4     1  lig        -0.8330
     22 O1         12.0385   12.2761   24.0108 O.co2   1  lig        -0.7110
     23 O2         10.9884   13.0145   25.7727 O.co2   1  lig        -0.8016
     24 O3          8.2503    6.2840   25.5967 O.3     1  lig        -0.4958
@<TRIPOS>BOND
     1    20    21    1
     2     8    21    1
     3     9    21    1
     4    10    21    1
     5    18    20    1
     6    19    20    1
     7     7    20    1
     8    18    23    1
     9    18    22    1
    10    16    19    1
    11     5    19    1
    12     6    19    1
    13    12    16   ar
    14    13    16   ar
    15    12    14   ar
    16     1    12    1
    17    13    15   ar
    18     2    13    1
    19    14    17   ar
    20     3    14    1
    21    15    17   ar
    22     4    15    1
    23    17    24    1
    24    11    24    1
@<TRIPOS>SUBSTRUCTURE
     1 lig         1 TEMP              0 ****  ****    0 ROOT


########## Name:		ligand
########## HA_RMSDs:		10.7591
########## HA_RMSDh:		10.6657
########## HA_RMSDm:		8.2804
########## Cluster Size:	1
##########    Grid Score:          -16.096996
##########      Grid_vdw:          -12.949554
##########       Grid_es:           -3.147441
##########    Int_energy:            2.766563

@<TRIPOS>MOLECULE
ligand
 24 24 1 0 0
SMALL
No Charge or Current Charge


@<TRIPOS>ATOM
      1 H1         14.1634   11.2310   22.4439 H       1  lig         0.1313
      2 H2         13.7220   11.6885   26.6668 H       1  lig         0.1473
      3 H3         16.2006   12.5686   22.5483 H       1  lig         0.1394
      4 H4         15.7511   13.0845   26.7711 H       1  lig         0.1574
      5 H5         12.2450   10.4780   23.4420 H       1  lig         0.1170
      6 H6         12.7652    9.5244   24.7937 H       1  lig         0.0678
      7 H7         11.6914   11.4554   26.2749 H       1  lig         0.0912
      8 H8         10.9011    9.1572   26.0658 H       1  lig         0.4249
      9 H9          9.5917   10.1863   26.0581 H       1  lig         0.4256
     10 H10        10.1362    9.5258   24.6241 H       1  lig         0.4835
     11 H11        17.4441   13.7530   23.6628 H       1  lig         0.4236
     12 C1         14.4967   11.6357   23.3975 C.ar    1  lig        -0.1098
     13 C2         14.2745   11.8983   25.7522 C.ar    1  lig        -0.0948
     14 C3         15.6413   12.3817   23.4595 C.ar    1  lig        -0.2079
     15 C4         15.4074   12.6866   25.8202 C.ar    1  lig        -0.1468
     16 C5         13.8039   11.3959   24.5445 C.ar    1  lig        -0.1510
     17 C6         16.0855   12.9327   24.6322 C.ar    1  lig         0.1263
     18 C7         10.6720   12.1879   24.5763 C.2     1  lig         0.9365
     19 C8         12.5462   10.5496   24.4891 C.3     1  lig        -0.0459
     20 C9         11.3631   11.0621   25.3110 C.3     1  lig        -0.0743
     21 N1         10.4610    9.9346   25.5424 N.4     1  lig        -0.8330
     22 O1          9.4973   12.3615   24.8935 O.co2   1  lig        -0.7110
     23 O2         11.2325   12.8833   23.6814 O.co2   1  lig        -0.8016
     24 O3         17.1686   13.6021   24.6143 O.3     1  lig        -0.4958
@<TRIPOS>BOND
     1    20    21    1
     2     8    21    1
     3     9    21    1
     4    10    21    1
     5    18    20    1
     6    19    20    1
     7     7    20    1
     8    18    23    1
     9    18    22    1
    10    16    19    1
    11     5    19    1
    12     6    19    1
    13    12    16   ar
    14    13    16   ar
    15    12    14   ar
    16     1    12    1
    17    13    15   ar
    18     2    13    1
    19    14    17   ar
    20     3    14    1
    21    15    17   ar
    22     4    15    1
    23    17    24    1
    24    11    24    1
@<TRIPOS>SUBSTRUCTURE
     1 lig         1 TEMP              0 ****  ****    0 ROOT


########## Name:		ligand
########## HA_RMSDs:		16.5219
########## HA_RMSDh:		16.4467
########## HA_RMSDm:		13.5309
########## Cluster Size:	1
##########    Grid Score:          -16.045527
##########      Grid_vdw:          -15.209574
##########       Grid_es:           -0.835952
##########    Int_energy:            1.555543

@<TRIPOS>MOLECULE
ligand
 24 24 1 0 0
SMALL
No Charge or Current Charge


@<TRIPOS>ATOM
      1 H1         28.5883    5.8620   11.1984 H       1  lig         0.1313
      2 H2         25.4256    4.5079   13.7284 H       1  lig         0.1473
      3 H3         28.0102    4.1123    9.6000 H       1  lig         0.1394
      4 H4         24.8701    2.7050   12.1417 H       1  lig         0.1574
      5 H5         26.9107    6.1315   14.5065 H       1  lig         0.1170
      6 H6         28.4698    6.3665   13.7845 H       1  lig         0.0678
      7 H7         27.3318    8.0184   12.1338 H       1  lig         0.0912
      8 H8         28.6788    8.6680   14.0609 H       1  lig         0.4249
      9 H9         27.3997    9.7237   13.9097 H       1  lig         0.4256
     10 H10        27.3511    8.5222   15.0686 H       1  lig         0.4835
     11 H11        25.6855    1.6597   10.3030 H       1  lig         0.4236
     12 C1         27.7752    5.1736   11.4203 C.ar    1  lig        -0.1098
     13 C2         26.0032    4.4061   12.8109 C.ar    1  lig        -0.0948
     14 C3         27.4458    4.1949   10.5235 C.ar    1  lig        -0.2079
     15 C4         25.6879    3.3887   11.9307 C.ar    1  lig        -0.1468
     16 C5         27.0582    5.2794   12.5726 C.ar    1  lig        -0.1510
     17 C6         26.4476    3.2903   10.7709 C.ar    1  lig         0.1263
     18 C7         25.4958    7.9337   13.1745 C.2     1  lig         0.9365
     19 C8         27.4010    6.3767   13.5622 C.3     1  lig        -0.0459
     20 C9         27.0006    7.7934   13.1493 C.3     1  lig        -0.0743
     21 N1         27.6451    8.7248   14.0745 N.4     1  lig        -0.8330
     22 O1         25.0137    8.0797   14.2956 O.co2   1  lig        -0.7110
     23 O2         24.7733    7.8751   12.1385 O.co2   1  lig        -0.8016
     24 O3         26.1878    2.4172    9.8812 O.3     1  lig        -0.4958
@<TRIPOS>BOND
     1    20    21    1
     2     8    21    1
     3     9    21    1
     4    10    21    1
     5    18    20    1
     6    19    20    1
     7     7    20    1
     8    18    23    1
     9    18    22    1
    10    16    19    1
    11     5    19    1
    12     6    19    1
    13    12    16   ar
    14    13    16   ar
    15    12    14   ar
    16     1    12    1
    17    13    15   ar
    18     2    13    1
    19    14    17   ar
    20     3    14    1
    21    15    17   ar
    22     4    15    1
    23    17    24    1
    24    11    24    1
@<TRIPOS>SUBSTRUCTURE
     1 lig         1 TEMP              0 ****  ****    0 ROOT


########## Name:		ligand
########## HA_RMSDs:		11.1747
########## HA_RMSDh:		11.0777
########## HA_RMSDm:		9.4096
########## Cluster Size:	1
##########    Grid Score:          -15.970160
##########      Grid_vdw:          -13.961987
##########       Grid_es:           -2.008173
##########    Int_energy:            3.554480

@<TRIPOS>MOLECULE
ligand
 24 24 1 0 0
SMALL
No Charge or Current Charge


@<TRIPOS>ATOM
      1 H1         13.1566    8.3981   21.1596 H       1  lig         0.1313
      2 H2         12.9420   12.0786   23.3148 H       1  lig         0.1473
      3 H3         15.4234    8.0787   22.0020 H       1  lig         0.1394
      4 H4         15.2511   11.7875   24.1271 H       1  lig         0.1574
      5 H5         11.4166   11.4951   21.3102 H       1  lig         0.1170
      6 H6         11.3247    9.8476   20.7765 H       1  lig         0.0678
      7 H7          9.4559    9.9226   22.1766 H       1  lig         0.0912
      8 H8          9.8878   12.2252   22.8559 H       1  lig         0.4249
      9 H9          9.4665   11.3317   24.1967 H       1  lig         0.4256
     10 H10        11.0693   11.7139   23.9245 H       1  lig         0.4835
     11 H11        17.0962   10.5188   23.7812 H       1  lig         0.4236
     12 C1         13.6053    9.1513   21.8043 C.ar    1  lig        -0.1098
     13 C2         13.5058   11.1954   23.0185 C.ar    1  lig        -0.0948
     14 C3         14.8743    8.9722   22.2819 C.ar    1  lig        -0.2079
     15 C4         14.8014   11.0442   23.4745 C.ar    1  lig        -0.1468
     16 C5         12.9171   10.2686   22.1660 C.ar    1  lig        -0.1510
     17 C6         15.4893    9.9044   23.0749 C.ar    1  lig         0.1263
     18 C7         10.7748    9.0376   23.5687 C.2     1  lig         0.9365
     19 C8         11.5004   10.4642   21.6602 C.3     1  lig        -0.0459
     20 C9         10.3888   10.1935   22.6745 C.3     1  lig        -0.0743
     21 N1         10.1772   11.4212   23.4404 N.4     1  lig        -0.8330
     22 O1         11.2996    9.3648   24.6309 O.co2   1  lig        -0.7110
     23 O2         10.6084    7.8251   23.2509 O.co2   1  lig        -0.8016
     24 O3         16.6665    9.6602   23.4944 O.3     1  lig        -0.4958
@<TRIPOS>BOND
     1    20    21    1
     2     8    21    1
     3     9    21    1
     4    10    21    1
     5    18    20    1
     6    19    20    1
     7     7    20    1
     8    18    23    1
     9    18    22    1
    10    16    19    1
    11     5    19    1
    12     6    19    1
    13    12    16   ar
    14    13    16   ar
    15    12    14   ar
    16     1    12    1
    17    13    15   ar
    18     2    13    1
    19    14    17   ar
    20     3    14    1
    21    15    17   ar
    22     4    15    1
    23    17    24    1
    24    11    24    1
@<TRIPOS>SUBSTRUCTURE
     1 lig         1 TEMP              0 ****  ****    0 ROOT


########## Name:		ligand
########## HA_RMSDs:		10.8123
########## HA_RMSDh:		10.7525
########## HA_RMSDm:		9.3536
########## Cluster Size:	1
##########    Grid Score:          -15.875005
##########      Grid_vdw:          -13.994900
##########       Grid_es:           -1.880105
##########    Int_energy:            1.056834

@<TRIPOS>MOLECULE
ligand
 24 24 1 0 0
SMALL
No Charge or Current Charge


@<TRIPOS>ATOM
      1 H1         14.3867    7.9977   21.2240 H       1  lig         0.1313
      2 H2         16.3388   10.8547   23.7268 H       1  lig         0.1473
      3 H3         12.4512    9.4776   21.1057 H       1  lig         0.1394
      4 H4         14.3658   12.3308   23.6540 H       1  lig         0.1574
      5 H5         16.6589    7.7689   21.6844 H       1  lig         0.1170
      6 H6         17.6035    9.0002   22.4585 H       1  lig         0.0678
      7 H7         15.9282    7.6587   24.4585 H       1  lig         0.0912
      8 H8         17.9471    8.9697   24.8522 H       1  lig         0.4249
      9 H9         18.1895    7.4173   25.4043 H       1  lig         0.4256
     10 H10        18.8523    7.8925   23.9469 H       1  lig         0.4835
     11 H11        11.6618   11.3299   21.5134 H       1  lig         0.4236
     12 C1         14.3933    8.9414   21.7658 C.ar    1  lig        -0.1098
     13 C2         15.4642   10.5507   23.1537 C.ar    1  lig        -0.0948
     14 C3         13.3113    9.7752   21.6971 C.ar    1  lig        -0.2079
     15 C4         14.3612   11.3823   23.1238 C.ar    1  lig        -0.1468
     16 C5         15.4734    9.3234   22.5008 C.ar    1  lig        -0.1510
     17 C6         13.2640   10.9603   22.3822 C.ar    1  lig         0.1263
     18 C7         16.8908    6.0879   23.4257 C.2     1  lig         0.9365
     19 C8         16.6873    8.4159   22.5636 C.3     1  lig        -0.0459
     20 C9         16.8030    7.5456   23.8155 C.3     1  lig        -0.0743
     21 N1         17.9901    7.9802   24.5508 N.4     1  lig        -0.8330
     22 O1         18.0077    5.7194   23.0689 O.co2   1  lig        -0.7110
     23 O2         15.8980    5.3048   23.4294 O.co2   1  lig        -0.8016
     24 O3         12.2290   11.6912   22.2563 O.3     1  lig        -0.4958
@<TRIPOS>BOND
     1    20    21    1
     2     8    21    1
     3     9    21    1
     4    10    21    1
     5    18    20    1
     6    19    20    1
     7     7    20    1
     8    18    23    1
     9    18    22    1
    10    16    19    1
    11     5    19    1
    12     6    19    1
    13    12    16   ar
    14    13    16   ar
    15    12    14   ar
    16     1    12    1
    17    13    15   ar
    18     2    13    1
    19    14    17   ar
    20     3    14    1
    21    15    17   ar
    22     4    15    1
    23    17    24    1
    24    11    24    1
@<TRIPOS>SUBSTRUCTURE
     1 lig         1 TEMP              0 ****  ****    0 ROOT


########## Name:		ligand
########## HA_RMSDs:		16.3530
########## HA_RMSDh:		16.3142
########## HA_RMSDm:		13.8369
########## Cluster Size:	1
##########    Grid Score:          -15.771553
##########      Grid_vdw:          -14.142057
##########       Grid_es:           -1.629496
##########    Int_energy:            1.227859

@<TRIPOS>MOLECULE
ligand
 24 24 1 0 0
SMALL
No Charge or Current Charge


@<TRIPOS>ATOM
      1 H1         24.6916    4.9078   12.5005 H       1  lig         0.1313
      2 H2         28.6406    6.5103   12.7732 H       1  lig         0.1473
      3 H3         23.8211    6.9921   13.4215 H       1  lig         0.1394
      4 H4         27.7719    8.5989   13.7530 H       1  lig         0.1574
      5 H5         28.3014    4.1826   12.3474 H       1  lig         0.1170
      6 H6         26.7450    3.4226   12.4327 H       1  lig         0.0678
      7 H7         26.7389    5.0512   10.0440 H       1  lig         0.0912
      8 H8         25.4916    3.0016   10.4840 H       1  lig         0.4249
      9 H9         26.4199    2.7915    9.1174 H       1  lig         0.4256
     10 H10        26.9142    2.1249   10.5667 H       1  lig         0.4835
     11 H11        24.4270    9.2299   13.5345 H       1  lig         0.4236
     12 C1         25.3781    5.7060   12.7759 C.ar    1  lig        -0.1098
     13 C2         27.5689    6.6219   12.9308 C.ar    1  lig        -0.0948
     14 C3         24.8921    6.8775   13.2878 C.ar    1  lig        -0.2079
     15 C4         27.0924    7.7941   13.4860 C.ar    1  lig        -0.1468
     16 C5         26.7212    5.5707   12.6010 C.ar    1  lig        -0.1510
     17 C6         25.7190    7.8995   13.6723 C.ar    1  lig         0.1263
     18 C7         28.6358    4.1286    9.9365 C.2     1  lig         0.9365
     19 C8         27.2673    4.2840   12.0119 C.3     1  lig        -0.0459
     20 C9         27.2290    4.1821   10.4867 C.3     1  lig        -0.0743
     21 N1         26.4681    2.9822   10.1404 N.4     1  lig        -0.8330
     22 O1         29.2234    3.0675   10.1349 O.co2   1  lig        -0.7110
     23 O2         29.1903    5.0995    9.3460 O.co2   1  lig        -0.8016
     24 O3         25.1921    8.9665   14.1255 O.3     1  lig        -0.4958
@<TRIPOS>BOND
     1    20    21    1
     2     8    21    1
     3     9    21    1
     4    10    21    1
     5    18    20    1
     6    19    20    1
     7     7    20    1
     8    18    23    1
     9    18    22    1
    10    16    19    1
    11     5    19    1
    12     6    19    1
    13    12    16   ar
    14    13    16   ar
    15    12    14   ar
    16     1    12    1
    17    13    15   ar
    18     2    13    1
    19    14    17   ar
    20     3    14    1
    21    15    17   ar
    22     4    15    1
    23    17    24    1
    24    11    24    1
@<TRIPOS>SUBSTRUCTURE
     1 lig         1 TEMP              0 ****  ****    0 ROOT


########## Name:		ligand
########## HA_RMSDs:		11.2827
########## HA_RMSDh:		11.1366
########## HA_RMSDm:		7.9684
########## Cluster Size:	1
##########    Grid Score:          -15.756721
##########      Grid_vdw:          -14.612653
##########       Grid_es:           -1.144068
##########    Int_energy:            2.020710

@<TRIPOS>MOLECULE
ligand
 24 24 1 0 0
SMALL
No Charge or Current Charge


@<TRIPOS>ATOM
      1 H1         15.6613   15.3152   25.2814 H       1  lig         0.1313
      2 H2         18.7501   15.8392   28.1834 H       1  lig         0.1473
      3 H3         16.7381   13.2483   24.5614 H       1  lig         0.1394
      4 H4         19.8714   13.7790   27.4251 H       1  lig         0.1574
      5 H5         17.2630   17.7111   27.4681 H       1  lig         0.1170
      6 H6         15.9186   17.4489   26.4045 H       1  lig         0.0678
      7 H7         16.1096   16.8059   29.3635 H       1  lig         0.0912
      8 H8         15.3938   14.7685   28.2293 H       1  lig         0.4249
      9 H9         14.0895   15.4397   29.0179 H       1  lig         0.4256
     10 H10        14.2447   15.6242   27.3653 H       1  lig         0.4835
     11 H11        18.1974   11.8501   24.8948 H       1  lig         0.4236
     12 C1         16.5863   14.9934   25.7558 C.ar    1  lig        -0.1098
     13 C2         18.3142   15.2614   27.3698 C.ar    1  lig        -0.0948
     14 C3         17.1893   13.8323   25.3573 C.ar    1  lig        -0.2079
     15 C4         18.9534   14.1112   26.9481 C.ar    1  lig        -0.1468
     16 C5         17.1506   15.7173   26.7609 C.ar    1  lig        -0.1510
     17 C6         18.3673   13.4008   25.9072 C.ar    1  lig         0.1263
     18 C7         14.6291   18.0529   28.5185 C.2     1  lig         0.9365
     19 C8         16.4761   16.9940   27.2256 C.3     1  lig        -0.0459
     20 C9         15.5451   16.8538   28.4304 C.3     1  lig        -0.0743
     21 N1         14.7925   15.6104   28.2684 N.4     1  lig        -0.8330
     22 O1         13.5769   17.9407   27.8932 O.co2   1  lig        -0.7110
     23 O2         14.9205   19.1071   29.1528 O.co2   1  lig        -0.8016
     24 O3         18.8604   12.3013   25.4956 O.3     1  lig        -0.4958
@<TRIPOS>BOND
     1    20    21    1
     2     8    21    1
     3     9    21    1
     4    10    21    1
     5    18    20    1
     6    19    20    1
     7     7    20    1
     8    18    23    1
     9    18    22    1
    10    16    19    1
    11     5    19    1
    12     6    19    1
    13    12    16   ar
    14    13    16   ar
    15    12    14   ar
    16     1    12    1
    17    13    15   ar
    18     2    13    1
    19    14    17   ar
    20     3    14    1
    21    15    17   ar
    22     4    15    1
    23    17    24    1
    24    11    24    1
@<TRIPOS>SUBSTRUCTURE
     1 lig         1 TEMP              0 ****  ****    0 ROOT


########## Name:		ligand
########## HA_RMSDs:		15.1365
########## HA_RMSDh:		15.1286
########## HA_RMSDm:		13.3588
########## Cluster Size:	1
##########    Grid Score:          -15.707566
##########      Grid_vdw:          -14.004636
##########       Grid_es:           -1.702931
##########    Int_energy:            2.467036

@<TRIPOS>MOLECULE
ligand
 24 24 1 0 0
SMALL
No Charge or Current Charge


@<TRIPOS>ATOM
      1 H1         25.2084    5.6651   15.5854 H       1  lig         0.1313
      2 H2         27.1013    7.7811   12.3954 H       1  lig         0.1473
      3 H3         25.7483    7.5130   17.0834 H       1  lig         0.1394
      4 H4         27.6958    9.6282   13.9158 H       1  lig         0.1574
      5 H5         24.9188    4.9503   13.3740 H       1  lig         0.1170
      6 H6         25.4657    5.8525   11.9977 H       1  lig         0.0678
      7 H7         26.5149    3.4129   12.7968 H       1  lig         0.0912
      8 H8         27.5614    4.4960   14.7156 H       1  lig         0.4249
      9 H9         28.7468    4.0050   13.6539 H       1  lig         0.4256
     10 H10        28.3002    5.6131   13.7128 H       1  lig         0.4835
     11 H11        26.1459   10.0902   16.6237 H       1  lig         0.4236
     12 C1         25.7587    6.5246   15.2078 C.ar    1  lig        -0.1098
     13 C2         26.8129    7.7246   13.4439 C.ar    1  lig        -0.0948
     14 C3         26.0583    7.5642   16.0444 C.ar    1  lig        -0.2079
     15 C4         27.1558    8.7624   14.2893 C.ar    1  lig        -0.1468
     16 C5         26.1411    6.5977   13.9034 C.ar    1  lig        -0.1510
     17 C6         26.7709    8.6545   15.6205 C.ar    1  lig         0.1263
     18 C7         27.4693    4.6002   11.3338 C.2     1  lig         0.9365
     19 C8         25.7924    5.4601   12.9626 C.3     1  lig        -0.0459
     20 C9         26.8988    4.4321   12.7234 C.3     1  lig        -0.0743
     21 N1         27.9186    4.6289   13.7530 N.4     1  lig        -0.8330
     22 O1         27.0322    3.8086   10.5015 O.co2   1  lig        -0.7110
     23 O2         28.3497    5.4594   11.0414 O.co2   1  lig        -0.8016
     24 O3         26.9976    9.5905   16.4535 O.3     1  lig        -0.4958
@<TRIPOS>BOND
     1    20    21    1
     2     8    21    1
     3     9    21    1
     4    10    21    1
     5    18    20    1
     6    19    20    1
     7     7    20    1
     8    18    23    1
     9    18    22    1
    10    16    19    1
    11     5    19    1
    12     6    19    1
    13    12    16   ar
    14    13    16   ar
    15    12    14   ar
    16     1    12    1
    17    13    15   ar
    18     2    13    1
    19    14    17   ar
    20     3    14    1
    21    15    17   ar
    22     4    15    1
    23    17    24    1
    24    11    24    1
@<TRIPOS>SUBSTRUCTURE
     1 lig         1 TEMP              0 ****  ****    0 ROOT


########## Name:		ligand
########## HA_RMSDs:		11.4866
########## HA_RMSDh:		11.4486
########## HA_RMSDm:		9.5852
########## Cluster Size:	1
##########    Grid Score:          -15.678120
##########      Grid_vdw:          -13.820602
##########       Grid_es:           -1.857517
##########    Int_energy:            3.648704

@<TRIPOS>MOLECULE
ligand
 24 24 1 0 0
SMALL
No Charge or Current Charge


@<TRIPOS>ATOM
      1 H1         20.5200   15.0298   27.8136 H       1  lig         0.1313
      2 H2         24.6687   14.0310   27.9804 H       1  lig         0.1473
      3 H3         21.0425   17.2077   28.7799 H       1  lig         0.1394
      4 H4         25.1963   16.2099   29.0056 H       1  lig         0.1574
      5 H5         22.9692   12.3212   27.6285 H       1  lig         0.1170
      6 H6         21.2726   12.6781   27.5908 H       1  lig         0.0678
      7 H7         22.7093   12.0565   25.3542 H       1  lig         0.0912
      8 H8         24.0435   14.0869   25.5717 H       1  lig         0.4249
      9 H9         23.1033   14.1972   24.2015 H       1  lig         0.4256
     10 H10        22.6582   15.0251   25.5818 H       1  lig         0.4835
     11 H11        22.5448   18.2506   30.0436 H       1  lig         0.4236
     12 C1         21.5479   15.2730   28.0753 C.ar    1  lig        -0.1098
     13 C2         23.8653   14.7407   28.1717 C.ar    1  lig        -0.0948
     14 C3         21.8442   16.4954   28.6126 C.ar    1  lig        -0.2079
     15 C4         24.1704   15.9570   28.7520 C.ar    1  lig        -0.1468
     16 C5         22.5580   14.3867   27.8582 C.ar    1  lig        -0.1510
     17 C6         23.1186   16.8363   28.9811 C.ar    1  lig         0.1263
     18 C7         20.8490   13.0406   25.1759 C.2     1  lig         0.9365
     19 C8         22.2421   13.0377   27.2408 C.3     1  lig        -0.0459
     20 C9         22.2609   12.9849   25.7127 C.3     1  lig        -0.0743
     21 N1         23.0634   14.1119   25.2389 N.4     1  lig        -0.8330
     22 O1         20.5883   12.1871   24.3309 O.co2   1  lig        -0.7110
     23 O2         20.0019   13.9090   25.5326 O.co2   1  lig        -0.8016
     24 O3         23.3196   17.9988   29.4601 O.3     1  lig        -0.4958
@<TRIPOS>BOND
     1    20    21    1
     2     8    21    1
     3     9    21    1
     4    10    21    1
     5    18    20    1
     6    19    20    1
     7     7    20    1
     8    18    23    1
     9    18    22    1
    10    16    19    1
    11     5    19    1
    12     6    19    1
    13    12    16   ar
    14    13    16   ar
    15    12    14   ar
    16     1    12    1
    17    13    15   ar
    18     2    13    1
    19    14    17   ar
    20     3    14    1
    21    15    17   ar
    22     4    15    1
    23    17    24    1
    24    11    24    1
@<TRIPOS>SUBSTRUCTURE
     1 lig         1 TEMP              0 ****  ****    0 ROOT


########## Name:		ligand
########## HA_RMSDs:		12.7133
########## HA_RMSDh:		12.6351
########## HA_RMSDm:		10.9296
########## Cluster Size:	1
##########    Grid Score:          -15.657637
##########      Grid_vdw:          -11.886605
##########       Grid_es:           -3.771032
##########    Int_energy:            4.176894

@<TRIPOS>MOLECULE
ligand
 24 24 1 0 0
SMALL
No Charge or Current Charge


@<TRIPOS>ATOM
      1 H1         10.4974   10.0063   25.1997 H       1  lig         0.1313
      2 H2         11.5296    7.1952   22.1552 H       1  lig         0.1473
      3 H3         12.0134    8.8558   26.7256 H       1  lig         0.1394
      4 H4         13.0232    5.9970   23.7077 H       1  lig         0.1574
      5 H5          9.5253    8.6280   21.9803 H       1  lig         0.1170
      6 H6          9.1378    9.8245   23.1743 H       1  lig         0.0678
      7 H7          9.9803   11.3390   21.6793 H       1  lig         0.0912
      8 H8          9.9557    9.5992   19.9697 H       1  lig         0.4249
      9 H9         11.3160   10.5392   19.7707 H       1  lig         0.4256
     10 H10        11.4438    9.0360   20.4871 H       1  lig         0.4835
     11 H11        13.1852    7.2021   27.0920 H       1  lig         0.4236
     12 C1         11.0402    9.1259   24.8615 C.ar    1  lig        -0.1098
     13 C2         11.6352    7.5523   23.1785 C.ar    1  lig        -0.0948
     14 C3         11.8946    8.4819   25.7136 C.ar    1  lig        -0.2079
     15 C4         12.4704    6.8704   24.0427 C.ar    1  lig        -0.1468
     16 C5         10.9019    8.6591   23.5903 C.ar    1  lig        -0.1510
     17 C6         12.5791    7.3556   25.3406 C.ar    1  lig         0.1263
     18 C7         11.9232   10.9135   22.3900 C.2     1  lig         0.9365
     19 C8          9.9745    9.3809   22.6312 C.3     1  lig        -0.0459
     20 C9         10.6233   10.4611   21.7651 C.3     1  lig        -0.0743
     21 N1         10.8329    9.8960   20.4326 N.4     1  lig        -0.8330
     22 O1         11.8506   11.9688   23.0158 O.co2   1  lig        -0.7110
     23 O2         13.0134   10.2860   22.2617 O.co2   1  lig        -0.8016
     24 O3         13.3689    6.8204   26.1838 O.3     1  lig        -0.4958
@<TRIPOS>BOND
     1    20    21    1
     2     8    21    1
     3     9    21    1
     4    10    21    1
     5    18    20    1
     6    19    20    1
     7     7    20    1
     8    18    23    1
     9    18    22    1
    10    16    19    1
    11     5    19    1
    12     6    19    1
    13    12    16   ar
    14    13    16   ar
    15    12    14   ar
    16     1    12    1
    17    13    15   ar
    18     2    13    1
    19    14    17   ar
    20     3    14    1
    21    15    17   ar
    22     4    15    1
    23    17    24    1
    24    11    24    1
@<TRIPOS>SUBSTRUCTURE
     1 lig         1 TEMP              0 ****  ****    0 ROOT


########## Name:		ligand
########## HA_RMSDs:		16.7519
########## HA_RMSDh:		16.7403
########## HA_RMSDm:		14.4944
########## Cluster Size:	1
##########    Grid Score:          -15.623560
##########      Grid_vdw:          -10.902266
##########       Grid_es:           -4.721294
##########    Int_energy:            3.758122

@<TRIPOS>MOLECULE
ligand
 24 24 1 0 0
SMALL
No Charge or Current Charge


@<TRIPOS>ATOM
      1 H1         24.0158    5.5155   13.6476 H       1  lig         0.1313
      2 H2         27.4435    3.8266   11.7409 H       1  lig         0.1473
      3 H3         25.2582    7.5911   13.9618 H       1  lig         0.1394
      4 H4         28.7214    5.9034   12.1022 H       1  lig         0.1574
      5 H5         24.9042    2.6936   13.4218 H       1  lig         0.1170
      6 H6         23.8322    3.4644   12.2975 H       1  lig         0.0678
      7 H7         26.4533    2.0895   11.5096 H       1  lig         0.0912
      8 H8         25.8021    3.9499   10.0727 H       1  lig         0.4249
      9 H9         25.5420    2.5186    9.2620 H       1  lig         0.4256
     10 H10        24.2518    3.3352    9.9385 H       1  lig         0.4835
     11 H11        28.5106    7.9890   12.7899 H       1  lig         0.4236
     12 C1         25.0478    5.5848   13.3094 C.ar    1  lig        -0.1098
     13 C2         26.9675    4.6667   12.2444 C.ar    1  lig        -0.0948
     14 C3         25.7449    6.7491   13.4799 C.ar    1  lig        -0.2079
     15 C4         27.6941    5.8244   12.4473 C.ar    1  lig        -0.1468
     16 C5         25.6593    4.5350   12.6957 C.ar    1  lig        -0.1510
     17 C6         27.0531    6.8747   13.0936 C.ar    1  lig         0.1263
     18 C7         24.6249    1.0444   11.3488 C.2     1  lig         0.9365
     19 C8         24.8863    3.2476   12.4810 C.3     1  lig        -0.0459
     20 C9         25.4014    2.3412   11.3625 C.3     1  lig        -0.0743
     21 N1         25.2607    3.0679   10.1012 N.4     1  lig        -0.8330
     22 O1         24.4923    0.5385   10.2366 O.co2   1  lig        -0.7110
     23 O2         24.1179    0.5251   12.3842 O.co2   1  lig        -0.8016
     24 O3         27.6314    7.9952   13.2706 O.3     1  lig        -0.4958
@<TRIPOS>BOND
     1    20    21    1
     2     8    21    1
     3     9    21    1
     4    10    21    1
     5    18    20    1
     6    19    20    1
     7     7    20    1
     8    18    23    1
     9    18    22    1
    10    16    19    1
    11     5    19    1
    12     6    19    1
    13    12    16   ar
    14    13    16   ar
    15    12    14   ar
    16     1    12    1
    17    13    15   ar
    18     2    13    1
    19    14    17   ar
    20     3    14    1
    21    15    17   ar
    22     4    15    1
    23    17    24    1
    24    11    24    1
@<TRIPOS>SUBSTRUCTURE
     1 lig         1 TEMP              0 ****  ****    0 ROOT


########## Name:		ligand
########## HA_RMSDs:		11.7004
########## HA_RMSDh:		11.6043
########## HA_RMSDm:		9.3585
########## Cluster Size:	1
##########    Grid Score:          -15.591492
##########      Grid_vdw:          -14.761078
##########       Grid_es:           -0.830413
##########    Int_energy:            1.881237

@<TRIPOS>MOLECULE
ligand
 24 24 1 0 0
SMALL
No Charge or Current Charge


@<TRIPOS>ATOM
      1 H1         12.3353   10.8299   21.7683 H       1  lig         0.1313
      2 H2         11.4599   12.1178   25.7447 H       1  lig         0.1473
      3 H3         14.7034   11.2249   22.2003 H       1  lig         0.1394
      4 H4         13.8458   12.5688   26.1700 H       1  lig         0.1574
      5 H5          9.7285   12.1081   23.7570 H       1  lig         0.1170
      6 H6         10.0917   11.0984   22.3947 H       1  lig         0.0678
      7 H7          9.8789   10.0511   25.2647 H       1  lig         0.0912
      8 H8         11.3269    8.7742   23.7738 H       1  lig         0.4249
      9 H9          9.9269    7.9133   24.0424 H       1  lig         0.4256
     10 H10        10.1310    8.7375   22.6043 H       1  lig         0.4835
     11 H11        16.1435   11.9109   23.4706 H       1  lig         0.4236
     12 C1         12.6518   11.2164   22.7351 C.ar    1  lig        -0.1098
     13 C2         12.1882   11.9316   24.9568 C.ar    1  lig        -0.0948
     14 C3         13.9794   11.4340   22.9815 C.ar    1  lig        -0.2079
     15 C4         13.5225   12.1930   25.2031 C.ar    1  lig        -0.1468
     16 C5         11.7486   11.4708   23.7211 C.ar    1  lig        -0.1510
     17 C6         14.4221   11.9434   24.1734 C.ar    1  lig         0.1263
     18 C7          8.1768    9.9883   24.0158 C.2     1  lig         0.9365
     19 C8         10.2764   11.2099   23.4649 C.3     1  lig        -0.0459
     20 C9          9.6778   10.0058   24.1928 C.3     1  lig        -0.0743
     21 N1         10.3000    8.8010   23.6451 N.4     1  lig        -0.8330
     22 O1          7.6935    8.8704   23.8507 O.co2   1  lig        -0.7110
     23 O2          7.4646   11.0330   24.0033 O.co2   1  lig        -0.8016
     24 O3         15.6749   12.1038   24.3350 O.3     1  lig        -0.4958
@<TRIPOS>BOND
     1    20    21    1
     2     8    21    1
     3     9    21    1
     4    10    21    1
     5    18    20    1
     6    19    20    1
     7     7    20    1
     8    18    23    1
     9    18    22    1
    10    16    19    1
    11     5    19    1
    12     6    19    1
    13    12    16   ar
    14    13    16   ar
    15    12    14   ar
    16     1    12    1
    17    13    15   ar
    18     2    13    1
    19    14    17   ar
    20     3    14    1
    21    15    17   ar
    22     4    15    1
    23    17    24    1
    24    11    24    1
@<TRIPOS>SUBSTRUCTURE
     1 lig         1 TEMP              0 ****  ****    0 ROOT


########## Name:		ligand
########## HA_RMSDs:		12.8268
########## HA_RMSDh:		12.7543
########## HA_RMSDm:		11.0781
########## Cluster Size:	1
##########    Grid Score:          -15.307458
##########      Grid_vdw:          -13.858427
##########       Grid_es:           -1.449031
##########    Int_energy:            3.037846

@<TRIPOS>MOLECULE
ligand
 24 24 1 0 0
SMALL
No Charge or Current Charge


@<TRIPOS>ATOM
      1 H1         13.9498   18.3777   31.1581 H       1  lig         0.1313
      2 H2         14.7981   15.1541   28.4886 H       1  lig         0.1473
      3 H3         12.9642   16.7804   32.7162 H       1  lig         0.1394
      4 H4         13.7565   13.5420   30.0356 H       1  lig         0.1574
      5 H5         14.3617   17.9696   27.9079 H       1  lig         0.1170
      6 H6         15.1054   18.8449   29.2071 H       1  lig         0.0678
      7 H7         16.8964   16.7132   28.8486 H       1  lig         0.0912
      8 H8         17.3771   19.0807   29.1861 H       1  lig         0.4249
      9 H9         18.2138   18.5400   27.8516 H       1  lig         0.4256
     10 H10        16.8202   19.4377   27.6492 H       1  lig         0.4835
     11 H11        12.0603   14.8119   32.8644 H       1  lig         0.4236
     12 C1         13.9088   17.3221   30.8970 C.ar    1  lig        -0.1098
     13 C2         14.3776   15.5095   29.4282 C.ar    1  lig        -0.0948
     14 C3         13.3613   16.4238   31.7710 C.ar    1  lig        -0.2079
     15 C4         13.7908   14.5988   30.2859 C.ar    1  lig        -0.1468
     16 C5         14.4143   16.8687   29.7172 C.ar    1  lig        -0.1510
     17 C6         13.2647   15.0899   31.4750 C.ar    1  lig         0.1263
     18 C7         16.3076   16.9000   26.8288 C.2     1  lig         0.9365
     19 C8         15.0448   17.8545   28.7520 C.3     1  lig        -0.0459
     20 C9         16.4277   17.4742   28.2219 C.3     1  lig        -0.0743
     21 N1         17.2571   18.6785   28.2396 N.4     1  lig        -0.8330
     22 O1         17.0032   15.9080   26.6220 O.co2   1  lig        -0.7110
     23 O2         15.5800   17.4061   25.9270 O.co2   1  lig        -0.8016
     24 O3         12.7569   14.3120   32.3458 O.3     1  lig        -0.4958
@<TRIPOS>BOND
     1    20    21    1
     2     8    21    1
     3     9    21    1
     4    10    21    1
     5    18    20    1
     6    19    20    1
     7     7    20    1
     8    18    23    1
     9    18    22    1
    10    16    19    1
    11     5    19    1
    12     6    19    1
    13    12    16   ar
    14    13    16   ar
    15    12    14   ar
    16     1    12    1
    17    13    15   ar
    18     2    13    1
    19    14    17   ar
    20     3    14    1
    21    15    17   ar
    22     4    15    1
    23    17    24    1
    24    11    24    1
@<TRIPOS>SUBSTRUCTURE
     1 lig         1 TEMP              0 ****  ****    0 ROOT


########## Name:		ligand
########## HA_RMSDs:		11.7335
########## HA_RMSDh:		11.6761
########## HA_RMSDm:		8.7709
########## Cluster Size:	1
##########    Grid Score:          -15.278089
##########      Grid_vdw:          -14.658590
##########       Grid_es:           -0.619498
##########    Int_energy:            1.811594

@<TRIPOS>MOLECULE
ligand
 24 24 1 0 0
SMALL
No Charge or Current Charge


@<TRIPOS>ATOM
      1 H1         18.3698   18.4242   29.3544 H       1  lig         0.1313
      2 H2         18.8600   14.6159   27.4854 H       1  lig         0.1473
      3 H3         16.2929   18.7266   28.1113 H       1  lig         0.1394
      4 H4         16.7895   14.9383   26.1871 H       1  lig         0.1574
      5 H5         20.0326   17.0219   30.0919 H       1  lig         0.1170
      6 H6         20.0442   15.3250   29.7346 H       1  lig         0.0678
      7 H7         21.2247   17.2343   27.6895 H       1  lig         0.0912
      8 H8         20.9186   14.8647   27.1981 H       1  lig         0.4249
      9 H9         22.5474   15.1893   27.3217 H       1  lig         0.4256
     10 H10        21.7516   14.4442   28.5869 H       1  lig         0.4835
     11 H11        14.9343   16.2318   26.1709 H       1  lig         0.4236
     12 C1         18.0383   17.6551   28.6596 C.ar    1  lig        -0.1098
     13 C2         18.2874   15.5335   27.6110 C.ar    1  lig        -0.0948
     14 C3         16.8716   17.8200   27.9651 C.ar    1  lig        -0.2079
     15 C4         17.1313   15.7073   26.8744 C.ar    1  lig        -0.1468
     16 C5         18.7555   16.5122   28.4803 C.ar    1  lig        -0.1510
     17 C6         16.4278   16.8914   27.0613 C.ar    1  lig         0.1263
     18 C7         22.4438   16.9447   29.3897 C.2     1  lig         0.9365
     19 C8         20.0384   16.3101   29.2640 C.3     1  lig        -0.0459
     20 C9         21.3353   16.4816   28.4723 C.3     1  lig        -0.0743
     21 N1         21.6505   15.1957   27.8514 N.4     1  lig        -0.8330
     22 O1         23.2097   17.7676   28.8929 O.co2   1  lig        -0.7110
     23 O2         22.6040   16.5067   30.5650 O.co2   1  lig        -0.8016
     24 O3         15.3239   17.1071   26.4645 O.3     1  lig        -0.4958
@<TRIPOS>BOND
     1    20    21    1
     2     8    21    1
     3     9    21    1
     4    10    21    1
     5    18    20    1
     6    19    20    1
     7     7    20    1
     8    18    23    1
     9    18    22    1
    10    16    19    1
    11     5    19    1
    12     6    19    1
    13    12    16   ar
    14    13    16   ar
    15    12    14   ar
    16     1    12    1
    17    13    15   ar
    18     2    13    1
    19    14    17   ar
    20     3    14    1
    21    15    17   ar
    22     4    15    1
    23    17    24    1
    24    11    24    1
@<TRIPOS>SUBSTRUCTURE
     1 lig         1 TEMP              0 ****  ****    0 ROOT


########## Name:		ligand
########## HA_RMSDs:		10.6659
########## HA_RMSDh:		10.6332
########## HA_RMSDm:		9.1833
########## Cluster Size:	1
##########    Grid Score:          -15.229084
##########      Grid_vdw:          -10.389987
##########       Grid_es:           -4.839097
##########    Int_energy:            3.054179

@<TRIPOS>MOLECULE
ligand
 24 24 1 0 0
SMALL
No Charge or Current Charge


@<TRIPOS>ATOM
      1 H1         17.9082   15.0473   28.3235 H       1  lig         0.1313
      2 H2         21.4655   13.1521   26.9124 H       1  lig         0.1473
      3 H3         19.2406   16.9854   28.9706 H       1  lig         0.1394
      4 H4         22.8248   15.0860   27.6119 H       1  lig         0.1574
      5 H5         19.4119   11.8847   27.2840 H       1  lig         0.1170
      6 H6         17.9537   12.6155   27.8731 H       1  lig         0.0678
      7 H7         18.0800   11.8067   25.3554 H       1  lig         0.0912
      8 H8         20.1185   13.0610   24.8847 H       1  lig         0.4249
      9 H9         18.8857   13.6476   23.9310 H       1  lig         0.4256
     10 H10        19.3584   14.4953   25.2900 H       1  lig         0.4835
     11 H11        21.2304   17.6522   29.4635 H       1  lig         0.4236
     12 C1         18.9851   15.0401   28.1671 C.ar    1  lig        -0.1098
     13 C2         20.9792   14.0062   27.3814 C.ar    1  lig        -0.0948
     14 C3         19.7337   16.1275   28.5245 C.ar    1  lig        -0.2079
     15 C4         21.7506   15.0828   27.7752 C.ar    1  lig        -0.1468
     16 C5         19.6066   13.9706   27.5991 C.ar    1  lig        -0.1510
     17 C6         21.0945   16.1538   28.3705 C.ar    1  lig         0.1263
     18 C7         16.8750   13.4962   25.7485 C.2     1  lig         0.9365
     19 C8         18.7812   12.7697   27.1778 C.3     1  lig        -0.0459
     20 C9         18.2230   12.8124   25.7549 C.3     1  lig        -0.0743
     21 N1         19.1914   13.5206   24.9187 N.4     1  lig        -0.8330
     22 O1         16.9119   14.6989   25.4977 O.co2   1  lig        -0.7110
     23 O2         15.7906   12.9008   26.0100 O.co2   1  lig        -0.8016
     24 O3         21.7219   17.2080   28.7116 O.3     1  lig        -0.4958
@<TRIPOS>BOND
     1    20    21    1
     2     8    21    1
     3     9    21    1
     4    10    21    1
     5    18    20    1
     6    19    20    1
     7     7    20    1
     8    18    23    1
     9    18    22    1
    10    16    19    1
    11     5    19    1
    12     6    19    1
    13    12    16   ar
    14    13    16   ar
    15    12    14   ar
    16     1    12    1
    17    13    15   ar
    18     2    13    1
    19    14    17   ar
    20     3    14    1
    21    15    17   ar
    22     4    15    1
    23    17    24    1
    24    11    24    1
@<TRIPOS>SUBSTRUCTURE
     1 lig         1 TEMP              0 ****  ****    0 ROOT


########## Name:		ligand
########## HA_RMSDs:		11.6306
########## HA_RMSDh:		11.5348
########## HA_RMSDm:		8.2161
########## Cluster Size:	1
##########    Grid Score:          -15.116161
##########      Grid_vdw:          -14.071941
##########       Grid_es:           -1.044220
##########    Int_energy:            1.106637

@<TRIPOS>MOLECULE
ligand
 24 24 1 0 0
SMALL
No Charge or Current Charge


@<TRIPOS>ATOM
      1 H1         13.4049   14.5210   27.9477 H       1  lig         0.1313
      2 H2         16.6884   16.3896   25.9568 H       1  lig         0.1473
      3 H3         13.8645   12.4724   26.7059 H       1  lig         0.1394
      4 H4         17.1253   14.3388   24.6605 H       1  lig         0.1574
      5 H5         14.9287   17.7030   27.1289 H       1  lig         0.1170
      6 H6         13.6739   16.9340   28.0461 H       1  lig         0.0678
      7 H7         16.2448   16.2092   29.2213 H       1  lig         0.0912
      8 H8         14.0558   16.2193   30.2975 H       1  lig         0.4249
      9 H9         15.0722   17.2505   31.1205 H       1  lig         0.4256
     10 H10        13.9275   17.8727   30.0757 H       1  lig         0.4835
     11 H11        16.4296   12.2750   24.3512 H       1  lig         0.4236
     12 C1         14.2194   14.4967   27.2265 C.ar    1  lig        -0.1098
     13 C2         16.0574   15.5154   26.1099 C.ar    1  lig        -0.0948
     14 C3         14.4823   13.3478   26.5326 C.ar    1  lig        -0.2079
     15 C4         16.3067   14.3726   25.3742 C.ar    1  lig        -0.1468
     16 C5         15.0031   15.5890   27.0130 C.ar    1  lig        -0.1510
     17 C6         15.4801   13.2777   25.5968 C.ar    1  lig         0.1263
     18 C7         16.3777   18.3039   28.9862 C.2     1  lig         0.9365
     19 C8         14.7339   16.8604   27.7953 C.3     1  lig        -0.0459
     20 C9         15.5528   17.0404   29.0740 C.3     1  lig        -0.0743
     21 N1         14.6182   17.0829   30.1981 N.4     1  lig        -0.8330
     22 O1         15.9823   19.2243   29.6985 O.co2   1  lig        -0.7110
     23 O2         17.3773   18.4316   28.2226 O.co2   1  lig        -0.8016
     24 O3         15.6754   12.1686   25.0024 O.3     1  lig        -0.4958
@<TRIPOS>BOND
     1    20    21    1
     2     8    21    1
     3     9    21    1
     4    10    21    1
     5    18    20    1
     6    19    20    1
     7     7    20    1
     8    18    23    1
     9    18    22    1
    10    16    19    1
    11     5    19    1
    12     6    19    1
    13    12    16   ar
    14    13    16   ar
    15    12    14   ar
    16     1    12    1
    17    13    15   ar
    18     2    13    1
    19    14    17   ar
    20     3    14    1
    21    15    17   ar
    22     4    15    1
    23    17    24    1
    24    11    24    1
@<TRIPOS>SUBSTRUCTURE
     1 lig         1 TEMP              0 ****  ****    0 ROOT


########## Name:		ligand
########## HA_RMSDs:		9.4644
########## HA_RMSDh:		9.3995
########## HA_RMSDm:		7.4173
########## Cluster Size:	1
##########    Grid Score:          -14.967717
##########      Grid_vdw:          -14.924835
##########       Grid_es:           -0.042882
##########    Int_energy:            1.924391

@<TRIPOS>MOLECULE
ligand
 24 24 1 0 0
SMALL
No Charge or Current Charge


@<TRIPOS>ATOM
      1 H1         16.0500   13.9093   22.8866 H       1  lig         0.1313
      2 H2         15.0449   11.2416   26.0663 H       1  lig         0.1473
      3 H3         16.5120   15.6450   24.5372 H       1  lig         0.1394
      4 H4         15.4597   13.0069   27.7362 H       1  lig         0.1574
      5 H5         15.1742   11.8619   22.3702 H       1  lig         0.1170
      6 H6         16.0739   10.7016   23.2931 H       1  lig         0.0678
      7 H7         13.8696   10.2386   24.6106 H       1  lig         0.0912
      8 H8         14.8320    8.7827   22.9065 H       1  lig         0.4249
      9 H9         13.1745    8.7885   22.7451 H       1  lig         0.4256
     10 H10        14.1134    9.6854   21.6949 H       1  lig         0.4835
     11 H11        16.4656   16.2363   26.4925 H       1  lig         0.4236
     12 C1         15.9110   13.6998   23.9454 C.ar    1  lig        -0.1098
     13 C2         15.3620   12.2288   25.7335 C.ar    1  lig        -0.0948
     14 C3         16.1741   14.6697   24.8732 C.ar    1  lig        -0.2079
     15 C4         15.5863   13.2132   26.6769 C.ar    1  lig        -0.1468
     16 C5         15.4970   12.4754   24.3721 C.ar    1  lig        -0.1510
     17 C6         15.9894   14.4603   26.2141 C.ar    1  lig         0.1263
     18 C7         12.7361   11.4151   23.2720 C.2     1  lig         0.9365
     19 C8         15.2255   11.3863   23.3518 C.3     1  lig        -0.0459
     20 C9         13.9521   10.5695   23.5737 C.3     1  lig        -0.0743
     21 N1         14.0210    9.3942   22.7061 N.4     1  lig        -0.8330
     22 O1         12.3455   11.3538   22.1083 O.co2   1  lig        -0.7110
     23 O2         12.1736   12.1568   24.1278 O.co2   1  lig        -0.8016
     24 O3         16.2711   15.4060   27.0188 O.3     1  lig        -0.4958
@<TRIPOS>BOND
     1    20    21    1
     2     8    21    1
     3     9    21    1
     4    10    21    1
     5    18    20    1
     6    19    20    1
     7     7    20    1
     8    18    23    1
     9    18    22    1
    10    16    19    1
    11     5    19    1
    12     6    19    1
    13    12    16   ar
    14    13    16   ar
    15    12    14   ar
    16     1    12    1
    17    13    15   ar
    18     2    13    1
    19    14    17   ar
    20     3    14    1
    21    15    17   ar
    22     4    15    1
    23    17    24    1
    24    11    24    1
@<TRIPOS>SUBSTRUCTURE
     1 lig         1 TEMP              0 ****  ****    0 ROOT


########## Name:		ligand
########## HA_RMSDs:		13.8877
########## HA_RMSDh:		13.8164
########## HA_RMSDm:		9.6964
########## Cluster Size:	1
##########    Grid Score:          -14.875699
##########      Grid_vdw:          -13.107991
##########       Grid_es:           -1.767708
##########    Int_energy:            2.316069

@<TRIPOS>MOLECULE
ligand
 24 24 1 0 0
SMALL
No Charge or Current Charge


@<TRIPOS>ATOM
      1 H1         15.2057   20.5598   30.7695 H       1  lig         0.1313
      2 H2         18.0900   18.3381   28.5375 H       1  lig         0.1473
      3 H3         13.4508   19.1377   29.8485 H       1  lig         0.1394
      4 H4         16.3158   16.9313   27.5628 H       1  lig         0.1574
      5 H5         18.6262   20.5267   29.5144 H       1  lig         0.1170
      6 H6         17.4819   21.4341   30.4495 H       1  lig         0.0678
      7 H7         18.9397   18.9228   31.4210 H       1  lig         0.0912
      8 H8         16.6804   19.1499   32.3121 H       1  lig         0.4249
      9 H9         17.7779   19.5046   33.5135 H       1  lig         0.4256
     10 H10        16.9785   20.7428   32.7281 H       1  lig         0.4835
     11 H11        12.9458   17.5459   28.6827 H       1  lig         0.4236
     12 C1         15.4623   19.7723   30.0636 C.ar    1  lig        -0.1098
     13 C2         17.0525   18.5163   28.8161 C.ar    1  lig        -0.0948
     14 C3         14.4808   18.9704   29.5496 C.ar    1  lig        -0.2079
     15 C4         16.0647   17.7261   28.2599 C.ar    1  lig        -0.1468
     16 C5         16.7535   19.5523   29.6934 C.ar    1  lig        -0.1510
     17 C6         14.7526   17.9838   28.6392 C.ar    1  lig         0.1263
     18 C7         19.5944   20.8440   32.0051 C.2     1  lig         0.9365
     19 C8         17.8514   20.4215   30.2766 C.3     1  lig        -0.0459
     20 C9         18.4920   19.9076   31.5664 C.3     1  lig        -0.0743
     21 N1         17.4384   19.8042   32.5753 N.4     1  lig        -0.8330
     22 O1         20.4953   20.3092   32.6477 O.co2   1  lig        -0.7110
     23 O2         19.5897   22.0858   31.7668 O.co2   1  lig        -0.8016
     24 O3         13.7884   17.2671   28.2174 O.3     1  lig        -0.4958
@<TRIPOS>BOND
     1    20    21    1
     2     8    21    1
     3     9    21    1
     4    10    21    1
     5    18    20    1
     6    19    20    1
     7     7    20    1
     8    18    23    1
     9    18    22    1
    10    16    19    1
    11     5    19    1
    12     6    19    1
    13    12    16   ar
    14    13    16   ar
    15    12    14   ar
    16     1    12    1
    17    13    15   ar
    18     2    13    1
    19    14    17   ar
    20     3    14    1
    21    15    17   ar
    22     4    15    1
    23    17    24    1
    24    11    24    1
@<TRIPOS>SUBSTRUCTURE
     1 lig         1 TEMP              0 ****  ****    0 ROOT


########## Name:		ligand
########## HA_RMSDs:		9.3714
########## HA_RMSDh:		9.3635
########## HA_RMSDm:		8.0868
########## Cluster Size:	1
##########    Grid Score:          -14.874291
##########      Grid_vdw:          -13.794275
##########       Grid_es:           -1.080016
##########    Int_energy:            4.013831

@<TRIPOS>MOLECULE
ligand
 24 24 1 0 0
SMALL
No Charge or Current Charge


@<TRIPOS>ATOM
      1 H1         19.4142   14.6226   27.6738 H       1  lig         0.1313
      2 H2         16.9803   12.4539   24.9151 H       1  lig         0.1473
      3 H3         17.8239   16.4693   27.5693 H       1  lig         0.1394
      4 H4         15.3970   14.3373   24.7648 H       1  lig         0.1574
      5 H5         19.7329   12.2868   27.3538 H       1  lig         0.1170
      6 H6         18.7494   11.3242   26.2987 H       1  lig         0.0678
      7 H7         21.3786   12.1518   25.7773 H       1  lig         0.0912
      8 H8         20.5133   14.3714   25.2532 H       1  lig         0.4249
      9 H9         21.0553   13.6532   23.8518 H       1  lig         0.4256
     10 H10        19.4175   13.7155   24.1723 H       1  lig         0.4835
     11 H11        15.1449   16.4598   26.9632 H       1  lig         0.4236
     12 C1         18.5413   14.5491   27.0280 C.ar    1  lig        -0.1098
     13 C2         17.1663   13.3565   25.4951 C.ar    1  lig        -0.0948
     14 C3         17.6456   15.5811   26.9714 C.ar    1  lig        -0.2079
     15 C4         16.2760   14.4089   25.3996 C.ar    1  lig        -0.1468
     16 C5         18.3084   13.4333   26.2840 C.ar    1  lig        -0.1510
     17 C6         16.5469   15.5442   26.1543 C.ar    1  lig         0.1263
     18 C7         20.2076   11.1233   24.3519 C.2     1  lig         0.9365
     19 C8         19.2839   12.2742   26.3585 C.3     1  lig        -0.0459
     20 C9         20.3988   12.2749   25.3121 C.3     1  lig        -0.0743
     21 N1         20.3608   13.5642   24.6230 N.4     1  lig        -0.8330
     22 O1         21.2481   10.6777   23.8728 O.co2   1  lig        -0.7110
     23 O2         19.0738   10.6645   24.0312 O.co2   1  lig        -0.8016
     24 O3         15.7493   16.5366   26.1676 O.3     1  lig        -0.4958
@<TRIPOS>BOND
     1    20    21    1
     2     8    21    1
     3     9    21    1
     4    10    21    1
     5    18    20    1
     6    19    20    1
     7     7    20    1
     8    18    23    1
     9    18    22    1
    10    16    19    1
    11     5    19    1
    12     6    19    1
    13    12    16   ar
    14    13    16   ar
    15    12    14   ar
    16     1    12    1
    17    13    15   ar
    18     2    13    1
    19    14    17   ar
    20     3    14    1
    21    15    17   ar
    22     4    15    1
    23    17    24    1
    24    11    24    1
@<TRIPOS>SUBSTRUCTURE
     1 lig         1 TEMP              0 ****  ****    0 ROOT


########## Name:		ligand
########## HA_RMSDs:		12.0109
########## HA_RMSDh:		11.9644
########## HA_RMSDm:		8.3274
########## Cluster Size:	2
##########    Grid Score:          -14.872066
##########      Grid_vdw:          -12.392254
##########       Grid_es:           -2.479812
##########    Int_energy:            1.030028

@<TRIPOS>MOLECULE
ligand
 24 24 1 0 0
SMALL
No Charge or Current Charge


@<TRIPOS>ATOM
      1 H1         15.2730   13.7241   26.0804 H       1  lig         0.1313
      2 H2         13.5094   16.2213   29.0622 H       1  lig         0.1473
      3 H3         16.5907   15.6293   25.3159 H       1  lig         0.1394
      4 H4         14.7993   18.1630   28.2606 H       1  lig         0.1574
      5 H5         12.4593   14.0183   28.2497 H       1  lig         0.1170
      6 H6         13.4150   12.9128   27.3160 H       1  lig         0.0678
      7 H7         14.4876   13.7376   30.0263 H       1  lig         0.0912
      8 H8         15.7608   12.3354   28.4891 H       1  lig         0.4249
      9 H9         15.3089   11.4257   29.8088 H       1  lig         0.4256
     10 H10        14.4810   11.2647   28.3674 H       1  lig         0.4835
     11 H11        17.1692   17.5674   25.6207 H       1  lig         0.4236
     12 C1         15.1551   14.6922   26.5633 C.ar    1  lig        -0.1098
     13 C2         14.1905   16.1006   28.2212 C.ar    1  lig        -0.0948
     14 C3         15.8965   15.7607   26.1398 C.ar    1  lig        -0.2079
     15 C4         14.9047   17.1964   27.7756 C.ar    1  lig        -0.1468
     16 C5         14.2930   14.8596   27.6032 C.ar    1  lig        -0.1510
     17 C6         15.7635   17.0036   26.6999 C.ar    1  lig         0.1263
     18 C7         12.8193   12.4493   30.1594 C.2     1  lig         0.9365
     19 C8         13.4841   13.6744   28.0952 C.3     1  lig        -0.0459
     20 C9         13.9847   13.0152   29.3808 C.3     1  lig        -0.0743
     21 N1         14.9387   11.9730   29.0035 N.4     1  lig        -0.8330
     22 O1         12.5579   11.2747   29.9090 O.co2   1  lig        -0.7110
     23 O2         12.1370   13.1253   30.9818 O.co2   1  lig        -0.8016
     24 O3         16.4997   17.9462   26.2630 O.3     1  lig        -0.4958
@<TRIPOS>BOND
     1    20    21    1
     2     8    21    1
     3     9    21    1
     4    10    21    1
     5    18    20    1
     6    19    20    1
     7     7    20    1
     8    18    23    1
     9    18    22    1
    10    16    19    1
    11     5    19    1
    12     6    19    1
    13    12    16   ar
    14    13    16   ar
    15    12    14   ar
    16     1    12    1
    17    13    15   ar
    18     2    13    1
    19    14    17   ar
    20     3    14    1
    21    15    17   ar
    22     4    15    1
    23    17    24    1
    24    11    24    1
@<TRIPOS>SUBSTRUCTURE
     1 lig         1 TEMP              0 ****  ****    0 ROOT


########## Name:		ligand
########## HA_RMSDs:		11.6853
########## HA_RMSDh:		11.6054
########## HA_RMSDm:		9.1016
########## Cluster Size:	1
##########    Grid Score:          -14.852436
##########      Grid_vdw:          -14.664703
##########       Grid_es:           -0.187732
##########    Int_energy:            1.588796

@<TRIPOS>MOLECULE
ligand
 24 24 1 0 0
SMALL
No Charge or Current Charge


@<TRIPOS>ATOM
      1 H1         16.2424   13.8660   26.2233 H       1  lig         0.1313
      2 H2         12.9621   15.2351   28.5901 H       1  lig         0.1473
      3 H3         14.7866   12.1655   25.2542 H       1  lig         0.1394
      4 H4         11.4999   13.4855   27.6532 H       1  lig         0.1574
      5 H5         15.2783   15.8690   29.1095 H       1  lig         0.1170
      6 H6         16.6230   15.3523   28.1441 H       1  lig         0.0678
      7 H7         14.5782   17.4309   27.2081 H       1  lig         0.0912
      8 H8         15.7017   16.1707   25.4475 H       1  lig         0.4249
      9 H9         16.3016   17.7241   25.4731 H       1  lig         0.4256
     10 H10        17.1915   16.4800   26.1434 H       1  lig         0.4835
     11 H11        11.4421   11.8471   26.1887 H       1  lig         0.4236
     12 C1         15.2071   13.7902   26.5498 C.ar    1  lig        -0.1098
     13 C2         13.3634   14.5403   27.8540 C.ar    1  lig        -0.0948
     14 C3         14.3874   12.8408   26.0044 C.ar    1  lig        -0.2079
     15 C4         12.5374   13.5595   27.3391 C.ar    1  lig        -0.1468
     16 C5         14.6994   14.6410   27.4831 C.ar    1  lig        -0.1510
     17 C6         13.0854   12.6911   26.4023 C.ar    1  lig         0.1263
     18 C7         16.3444   18.0860   28.1631 C.2     1  lig         0.9365
     19 C8         15.5946   15.7123   28.0762 C.3     1  lig        -0.0459
     20 C9         15.5941   17.0572   27.3487 C.3     1  lig        -0.0743
     21 N1         16.2091   16.8536   26.0376 N.4     1  lig        -0.8330
     22 O1         17.5655   18.0565   28.0261 O.co2   1  lig        -0.7110
     23 O2         15.7797   18.8974   28.9514 O.co2   1  lig        -0.8016
     24 O3         12.3790   11.7950   25.8371 O.3     1  lig        -0.4958
@<TRIPOS>BOND
     1    20    21    1
     2     8    21    1
     3     9    21    1
     4    10    21    1
     5    18    20    1
     6    19    20    1
     7     7    20    1
     8    18    23    1
     9    18    22    1
    10    16    19    1
    11     5    19    1
    12     6    19    1
    13    12    16   ar
    14    13    16   ar
    15    12    14   ar
    16     1    12    1
    17    13    15   ar
    18     2    13    1
    19    14    17   ar
    20     3    14    1
    21    15    17   ar
    22     4    15    1
    23    17    24    1
    24    11    24    1
@<TRIPOS>SUBSTRUCTURE
     1 lig         1 TEMP              0 ****  ****    0 ROOT


########## Name:		ligand
########## HA_RMSDs:		10.2570
########## HA_RMSDh:		10.2180
########## HA_RMSDm:		8.8294
########## Cluster Size:	1
##########    Grid Score:          -14.679296
##########      Grid_vdw:          -12.094895
##########       Grid_es:           -2.584400
##########    Int_energy:            2.380365

@<TRIPOS>MOLECULE
ligand
 24 24 1 0 0
SMALL
No Charge or Current Charge


@<TRIPOS>ATOM
      1 H1         15.6499   13.6927   27.2156 H       1  lig         0.1313
      2 H2         18.3626   16.8707   28.0981 H       1  lig         0.1473
      3 H3         13.8006   15.2756   27.3738 H       1  lig         0.1394
      4 H4         16.4940   18.4644   28.3111 H       1  lig         0.1574
      5 H5         19.0242   14.4943   28.2926 H       1  lig         0.1170
      6 H6         17.9563   13.2012   27.8512 H       1  lig         0.0678
      7 H7         19.4144   15.0627   25.9112 H       1  lig         0.0912
      8 H8         17.1557   14.5398   25.1531 H       1  lig         0.4249
      9 H9         18.2506   13.6912   24.2286 H       1  lig         0.4256
     10 H10        17.4094   12.9115   25.4426 H       1  lig         0.4835
     11 H11        13.1722   17.1742   27.7569 H       1  lig         0.4236
     12 C1         15.8485   14.7339   27.4619 C.ar    1  lig        -0.1098
     13 C2         17.3421   16.5214   27.9487 C.ar    1  lig        -0.0948
     14 C3         14.8139   15.6245   27.5463 C.ar    1  lig        -0.2079
     15 C4         16.3011   17.4212   28.0759 C.ar    1  lig        -0.1468
     16 C5         17.1184   15.1781   27.6694 C.ar    1  lig        -0.1510
     17 C6         15.0128   16.9383   27.8785 C.ar    1  lig         0.1263
     18 C7         20.0160   13.0575   26.1910 C.2     1  lig         0.9365
     19 C8         18.2742   14.2026   27.5545 C.3     1  lig        -0.0459
     20 C9         18.9387   14.1177   26.1800 C.3     1  lig        -0.0743
     21 N1         17.8958   13.8173   25.1999 N.4     1  lig        -0.8330
     22 O1         21.0099   13.3302   25.5213 O.co2   1  lig        -0.7110
     23 O2         19.9061   11.9590   26.8074 O.co2   1  lig        -0.8016
     24 O3         14.0019   17.7113   27.9218 O.3     1  lig        -0.4958
@<TRIPOS>BOND
     1    20    21    1
     2     8    21    1
     3     9    21    1
     4    10    21    1
     5    18    20    1
     6    19    20    1
     7     7    20    1
     8    18    23    1
     9    18    22    1
    10    16    19    1
    11     5    19    1
    12     6    19    1
    13    12    16   ar
    14    13    16   ar
    15    12    14   ar
    16     1    12    1
    17    13    15   ar
    18     2    13    1
    19    14    17   ar
    20     3    14    1
    21    15    17   ar
    22     4    15    1
    23    17    24    1
    24    11    24    1
@<TRIPOS>SUBSTRUCTURE
     1 lig         1 TEMP              0 ****  ****    0 ROOT


########## Name:		ligand
########## HA_RMSDs:		14.1900
########## HA_RMSDh:		14.1160
########## HA_RMSDm:		12.3113
########## Cluster Size:	1
##########    Grid Score:          -14.621293
##########      Grid_vdw:          -12.495876
##########       Grid_es:           -2.125417
##########    Int_energy:            1.482311

@<TRIPOS>MOLECULE
ligand
 24 24 1 0 0
SMALL
No Charge or Current Charge


@<TRIPOS>ATOM
      1 H1         25.7683    9.8935   15.7358 H       1  lig         0.1313
      2 H2         27.2222    5.8785   15.7923 H       1  lig         0.1473
      3 H3         24.5916    9.3998   13.6568 H       1  lig         0.1394
      4 H4         26.0784    5.3886   13.6644 H       1  lig         0.1574
      5 H5         28.3253    7.8404   17.0883 H       1  lig         0.1170
      6 H6         27.4137    9.2971   17.3212 H       1  lig         0.0678
      7 H7         25.6728    7.2381   18.2373 H       1  lig         0.0912
      8 H8         25.9818    9.4893   19.1241 H       1  lig         0.4249
      9 H9         26.1908    8.3860   20.3540 H       1  lig         0.4256
     10 H10        27.5236    9.0991   19.6439 H       1  lig         0.4835
     11 H11        25.0172    6.4314   11.9508 H       1  lig         0.4236
     12 C1         25.8495    8.9041   15.2900 C.ar    1  lig        -0.1098
     13 C2         26.6425    6.6605   15.3043 C.ar    1  lig        -0.0948
     14 C3         25.1867    8.6233   14.1270 C.ar    1  lig        -0.2079
     15 C4         26.0098    6.3777   14.1089 C.ar    1  lig        -0.1468
     16 C5         26.5865    7.9242   15.8810 C.ar    1  lig        -0.1510
     17 C6         25.2798    7.4010   13.5158 C.ar    1  lig         0.1263
     18 C7         27.5088    6.4738   18.9486 C.2     1  lig         0.9365
     19 C8         27.3058    8.2195   17.1835 C.3     1  lig        -0.0459
     20 C9         26.6722    7.6264   18.4424 C.3     1  lig        -0.0743
     21 N1         26.5700    8.6958   19.4346 N.4     1  lig        -0.8330
     22 O1         28.5730    6.8027   19.4682 O.co2   1  lig        -0.7110
     23 O2         27.1713    5.2614   18.8262 O.co2   1  lig        -0.8016
     24 O3         24.6210    7.2090   12.4433 O.3     1  lig        -0.4958
@<TRIPOS>BOND
     1    20    21    1
     2     8    21    1
     3     9    21    1
     4    10    21    1
     5    18    20    1
     6    19    20    1
     7     7    20    1
     8    18    23    1
     9    18    22    1
    10    16    19    1
    11     5    19    1
    12     6    19    1
    13    12    16   ar
    14    13    16   ar
    15    12    14   ar
    16     1    12    1
    17    13    15   ar
    18     2    13    1
    19    14    17   ar
    20     3    14    1
    21    15    17   ar
    22     4    15    1
    23    17    24    1
    24    11    24    1
@<TRIPOS>SUBSTRUCTURE
     1 lig         1 TEMP              0 ****  ****    0 ROOT


########## Name:		ligand
########## HA_RMSDs:		10.9270
########## HA_RMSDh:		10.8968
########## HA_RMSDm:		8.6347
########## Cluster Size:	1
##########    Grid Score:          -14.393899
##########      Grid_vdw:          -14.791473
##########       Grid_es:            0.397575
##########    Int_energy:            1.579604

@<TRIPOS>MOLECULE
ligand
 24 24 1 0 0
SMALL
No Charge or Current Charge


@<TRIPOS>ATOM
      1 H1         15.5662   13.9667   25.5847 H       1  lig         0.1313
      2 H2         12.8609   15.0340   28.7119 H       1  lig         0.1473
      3 H3         16.8225   16.0112   26.0228 H       1  lig         0.1394
      4 H4         14.0958   17.1273   29.1244 H       1  lig         0.1574
      5 H5         13.7800   12.6313   25.9664 H       1  lig         0.1170
      6 H6         13.5095   12.3957   27.6631 H       1  lig         0.0678
      7 H7         11.5784   14.3191   26.4796 H       1  lig         0.0912
      8 H8         11.4292   13.3110   28.6958 H       1  lig         0.4249
      9 H9         10.1280   12.8141   27.7827 H       1  lig         0.4256
     10 H10        11.4158   11.7786   28.0244 H       1  lig         0.4835
     11 H11        16.8657   17.8583   26.9614 H       1  lig         0.4236
     12 C1         15.2297   14.6530   26.3592 C.ar    1  lig        -0.1098
     13 C2         13.7388   15.2646   28.1101 C.ar    1  lig        -0.0948
     14 C3         15.9351   15.7975   26.6102 C.ar    1  lig        -0.2079
     15 C4         14.4207   16.4432   28.3452 C.ar    1  lig        -0.1468
     16 C5         14.1231   14.3846   27.1051 C.ar    1  lig        -0.1510
     17 C6         15.5356   16.7031   27.5570 C.ar    1  lig         0.1263
     18 C7         11.4070   12.5072   25.4081 C.2     1  lig         0.9365
     19 C8         13.3480   13.1059   26.8498 C.3     1  lig        -0.0459
     20 C9         11.8429   13.2718   26.6369 C.3     1  lig        -0.0743
     21 N1         11.1678   12.7888   27.8409 N.4     1  lig        -0.8330
     22 O1         10.9165   13.2011   24.5201 O.co2   1  lig        -0.7110
     23 O2         11.5021   11.2510   25.2991 O.co2   1  lig        -0.8016
     24 O3         16.2529   17.7383   27.7450 O.3     1  lig        -0.4958
@<TRIPOS>BOND
     1    20    21    1
     2     8    21    1
     3     9    21    1
     4    10    21    1
     5    18    20    1
     6    19    20    1
     7     7    20    1
     8    18    23    1
     9    18    22    1
    10    16    19    1
    11     5    19    1
    12     6    19    1
    13    12    16   ar
    14    13    16   ar
    15    12    14   ar
    16     1    12    1
    17    13    15   ar
    18     2    13    1
    19    14    17   ar
    20     3    14    1
    21    15    17   ar
    22     4    15    1
    23    17    24    1
    24    11    24    1
@<TRIPOS>SUBSTRUCTURE
     1 lig         1 TEMP              0 ****  ****    0 ROOT


########## Name:		ligand
########## HA_RMSDs:		14.9332
########## HA_RMSDh:		14.8457
########## HA_RMSDm:		12.8843
########## Cluster Size:	1
##########    Grid Score:          -14.379745
##########      Grid_vdw:          -13.643932
##########       Grid_es:           -0.735813
##########    Int_energy:            2.899514

@<TRIPOS>MOLECULE
ligand
 24 24 1 0 0
SMALL
No Charge or Current Charge


@<TRIPOS>ATOM
      1 H1          8.7620    4.9164   21.6332 H       1  lig         0.1313
      2 H2         11.4616    7.9594   22.9329 H       1  lig         0.1473
      3 H3          9.5731    3.4799   23.4302 H       1  lig         0.1394
      4 H4         12.3224    6.4936   24.7181 H       1  lig         0.1574
      5 H5         10.3483    8.1506   20.8347 H       1  lig         0.1170
      6 H6          9.4348    6.8568   20.1283 H       1  lig         0.0678
      7 H7          7.5108    7.4999   21.7725 H       1  lig         0.0912
      8 H8          7.5591    7.9950   19.3845 H       1  lig         0.4249
      9 H9          6.9000    9.2912   20.1962 H       1  lig         0.4256
     10 H10         8.4807    9.3636   19.6623 H       1  lig         0.4835
     11 H11        12.0142    4.5390   25.6803 H       1  lig         0.4236
     12 C1          9.5464    5.2724   22.2982 C.ar    1  lig        -0.1098
     13 C2         11.0537    6.9559   23.0441 C.ar    1  lig        -0.0948
     14 C3          9.9993    4.4708   23.3096 C.ar    1  lig        -0.2079
     15 C4         11.5469    6.1399   24.0442 C.ar    1  lig        -0.1468
     16 C5         10.0771    6.5179   22.1571 C.ar    1  lig        -0.1510
     17 C6         11.0021    4.8660   24.1548 C.ar    1  lig         0.1263
     18 C7          8.5179    9.2557   22.3757 C.2     1  lig         0.9365
     19 C8          9.5642    7.4227   21.0529 C.3     1  lig        -0.0459
     20 C9          8.2648    8.1698   21.3551 C.3     1  lig        -0.0743
     21 N1          7.7646    8.7191   20.0955 N.4     1  lig        -0.8330
     22 O1          7.5412    9.5533   23.0599 O.co2   1  lig        -0.7110
     23 O2          9.6297    9.8437   22.5061 O.co2   1  lig        -0.8016
     24 O3         11.3597    4.0711   25.0830 O.3     1  lig        -0.4958
@<TRIPOS>BOND
     1    20    21    1
     2     8    21    1
     3     9    21    1
     4    10    21    1
     5    18    20    1
     6    19    20    1
     7     7    20    1
     8    18    23    1
     9    18    22    1
    10    16    19    1
    11     5    19    1
    12     6    19    1
    13    12    16   ar
    14    13    16   ar
    15    12    14   ar
    16     1    12    1
    17    13    15   ar
    18     2    13    1
    19    14    17   ar
    20     3    14    1
    21    15    17   ar
    22     4    15    1
    23    17    24    1
    24    11    24    1
@<TRIPOS>SUBSTRUCTURE
     1 lig         1 TEMP              0 ****  ****    0 ROOT


########## Name:		ligand
########## HA_RMSDs:		11.4657
########## HA_RMSDh:		11.3732
########## HA_RMSDm:		9.4827
########## Cluster Size:	1
##########    Grid Score:          -14.341000
##########      Grid_vdw:          -12.358234
##########       Grid_es:           -1.982765
##########    Int_energy:            1.087871

@<TRIPOS>MOLECULE
ligand
 24 24 1 0 0
SMALL
No Charge or Current Charge


@<TRIPOS>ATOM
      1 H1         11.2879   12.7901   25.6680 H       1  lig         0.1313
      2 H2         14.9230   10.9028   24.4592 H       1  lig         0.1473
      3 H3         10.3254   12.2478   23.4932 H       1  lig         0.1394
      4 H4         13.9738   10.3981   22.2409 H       1  lig         0.1574
      5 H5         13.0470   11.9109   27.3052 H       1  lig         0.1170
      6 H6         14.6525   11.6014   26.7273 H       1  lig         0.0678
      7 H7         13.3614   14.3536   26.4190 H       1  lig         0.0912
      8 H8         15.2890   13.8056   25.0283 H       1  lig         0.4249
      9 H9         15.7471   14.9174   26.1806 H       1  lig         0.4256
     10 H10        16.1492   13.3081   26.3744 H       1  lig         0.4835
     11 H11        12.1824   10.7111   20.9805 H       1  lig         0.4236
     12 C1         11.8894   12.2709   24.9245 C.ar    1  lig        -0.1098
     13 C2         13.9028   11.2083   24.2319 C.ar    1  lig        -0.0948
     14 C3         11.3504   11.9612   23.7062 C.ar    1  lig        -0.2079
     15 C4         13.3818   10.9258   22.9836 C.ar    1  lig        -0.1468
     16 C5         13.1720   11.9008   25.1904 C.ar    1  lig        -0.1510
     17 C6         12.0768   11.3316   22.7304 C.ar    1  lig         0.1263
     18 C7         14.3045   13.9434   28.2637 C.2     1  lig         0.9365
     19 C8         13.7704   12.2190   26.5475 C.3     1  lig        -0.0459
     20 C9         14.1419   13.6833   26.7836 C.3     1  lig        -0.0743
     21 N1         15.3777   13.9523   26.0494 N.4     1  lig        -0.8330
     22 O1         15.4609   13.8676   28.6731 O.co2   1  lig        -0.7110
     23 O2         13.3358   14.1883   29.0386 O.co2   1  lig        -0.8016
     24 O3         11.5017   11.0619   21.6268 O.3     1  lig        -0.4958
@<TRIPOS>BOND
     1    20    21    1
     2     8    21    1
     3     9    21    1
     4    10    21    1
     5    18    20    1
     6    19    20    1
     7     7    20    1
     8    18    23    1
     9    18    22    1
    10    16    19    1
    11     5    19    1
    12     6    19    1
    13    12    16   ar
    14    13    16   ar
    15    12    14   ar
    16     1    12    1
    17    13    15   ar
    18     2    13    1
    19    14    17   ar
    20     3    14    1
    21    15    17   ar
    22     4    15    1
    23    17    24    1
    24    11    24    1
@<TRIPOS>SUBSTRUCTURE
     1 lig         1 TEMP              0 ****  ****    0 ROOT


########## Name:		ligand
########## HA_RMSDs:		10.2779
########## HA_RMSDh:		10.2228
########## HA_RMSDm:		8.5804
########## Cluster Size:	1
##########    Grid Score:          -14.277505
##########      Grid_vdw:          -13.330473
##########       Grid_es:           -0.947032
##########    Int_energy:            3.232584

@<TRIPOS>MOLECULE
ligand
 24 24 1 0 0
SMALL
No Charge or Current Charge


@<TRIPOS>ATOM
      1 H1         14.0048    9.7682   22.5257 H       1  lig         0.1313
      2 H2         18.2277   10.1083   23.0630 H       1  lig         0.1473
      3 H3         13.7453   12.0207   23.4253 H       1  lig         0.1394
      4 H4         17.9675   12.3645   24.0216 H       1  lig         0.1574
      5 H5         15.5351    8.2638   21.4156 H       1  lig         0.1170
      6 H6         17.2515    8.3176   21.6566 H       1  lig         0.0678
      7 H7         16.3635    6.2825   22.7011 H       1  lig         0.0912
      8 H8         14.1056    7.1392   23.0441 H       1  lig         0.4249
      9 H9         14.6880    6.5459   24.4872 H       1  lig         0.4256
     10 H10        14.6583    8.1940   24.2194 H       1  lig         0.4835
     11 H11        16.4336   13.8309   24.6834 H       1  lig         0.4236
     12 C1         14.8808   10.3236   22.8549 C.ar    1  lig        -0.1098
     13 C2         17.2315   10.5379   23.1571 C.ar    1  lig        -0.0948
     14 C3         14.7385   11.5886   23.3551 C.ar    1  lig        -0.2079
     15 C4         17.0956   11.8008   23.7010 C.ar    1  lig        -0.1468
     16 C5         16.1293    9.7897   22.7597 C.ar    1  lig        -0.1510
     17 C6         15.8086   12.3154   23.8053 C.ar    1  lig         0.1263
     18 C7         17.2548    7.3988   24.2569 C.2     1  lig         0.9365
     19 C8         16.2991    8.3965   22.1843 C.3     1  lig        -0.0459
     20 C9         16.1984    7.2461   23.1866 C.3     1  lig        -0.0743
     21 N1         14.8501    7.2662   23.7523 N.4     1  lig        -0.8330
     22 O1         16.8714    7.9655   25.2779 O.co2   1  lig        -0.7110
     23 O2         18.4498    7.0100   24.1167 O.co2   1  lig        -0.8016
     24 O3         15.5996   13.4928   24.2427 O.3     1  lig        -0.4958
@<TRIPOS>BOND
     1    20    21    1
     2     8    21    1
     3     9    21    1
     4    10    21    1
     5    18    20    1
     6    19    20    1
     7     7    20    1
     8    18    23    1
     9    18    22    1
    10    16    19    1
    11     5    19    1
    12     6    19    1
    13    12    16   ar
    14    13    16   ar
    15    12    14   ar
    16     1    12    1
    17    13    15   ar
    18     2    13    1
    19    14    17   ar
    20     3    14    1
    21    15    17   ar
    22     4    15    1
    23    17    24    1
    24    11    24    1
@<TRIPOS>SUBSTRUCTURE
     1 lig         1 TEMP              0 ****  ****    0 ROOT


########## Name:		ligand
########## HA_RMSDs:		11.9362
########## HA_RMSDh:		11.8675
########## HA_RMSDm:		7.8329
########## Cluster Size:	1
##########    Grid Score:          -14.126978
##########      Grid_vdw:          -12.404086
##########       Grid_es:           -1.722891
##########    Int_energy:            1.244906

@<TRIPOS>MOLECULE
ligand
 24 24 1 0 0
SMALL
No Charge or Current Charge


@<TRIPOS>ATOM
      1 H1         18.0402   15.6773   28.8882 H       1  lig         0.1313
      2 H2         15.2707   16.7914   25.8344 H       1  lig         0.1473
      3 H3         18.8790   13.9090   27.4321 H       1  lig         0.1394
      4 H4         16.0781   14.9731   24.3787 H       1  lig         0.1574
      5 H5         16.9210   18.0910   28.5897 H       1  lig         0.1170
      6 H6         15.3735   18.0748   27.8072 H       1  lig         0.0678
      7 H7         16.0391   16.2765   30.1932 H       1  lig         0.0912
      8 H8         14.2497   15.5262   28.7149 H       1  lig         0.4249
      9 H9         13.5862   16.0575   30.1471 H       1  lig         0.4256
     10 H10        13.5224   17.0310   28.7917 H       1  lig         0.4835
     11 H11        18.0382   13.6705   24.1783 H       1  lig         0.4236
     12 C1         17.5974   15.5305   27.9050 C.ar    1  lig        -0.1098
     13 C2         16.0673   16.1378   26.1867 C.ar    1  lig        -0.0948
     14 C3         18.0693   14.5429   27.0847 C.ar    1  lig        -0.2079
     15 C4         16.5089   15.1179   25.3657 C.ar    1  lig        -0.1468
     16 C5         16.5885   16.3292   27.4612 C.ar    1  lig        -0.1510
     17 C6         17.5264   14.3044   25.8500 C.ar    1  lig         0.1263
     18 C7         15.2177   18.1850   30.5723 C.2     1  lig         0.9365
     19 C8         16.0749   17.4421   28.3547 C.3     1  lig        -0.0459
     20 C9         15.4151   16.9961   29.6600 C.3     1  lig        -0.0743
     21 N1         14.1432   16.3594   29.3203 N.4     1  lig        -0.8330
     22 O1         14.0503   18.5505   30.6920 O.co2   1  lig        -0.7110
     23 O2         16.1690   18.7871   31.1477 O.co2   1  lig        -0.8016
     24 O3         18.0296   13.3775   25.1365 O.3     1  lig        -0.4958
@<TRIPOS>BOND
     1    20    21    1
     2     8    21    1
     3     9    21    1
     4    10    21    1
     5    18    20    1
     6    19    20    1
     7     7    20    1
     8    18    23    1
     9    18    22    1
    10    16    19    1
    11     5    19    1
    12     6    19    1
    13    12    16   ar
    14    13    16   ar
    15    12    14   ar
    16     1    12    1
    17    13    15   ar
    18     2    13    1
    19    14    17   ar
    20     3    14    1
    21    15    17   ar
    22     4    15    1
    23    17    24    1
    24    11    24    1
@<TRIPOS>SUBSTRUCTURE
     1 lig         1 TEMP              0 ****  ****    0 ROOT


########## Name:		ligand
########## HA_RMSDs:		11.3926
########## HA_RMSDh:		11.2646
########## HA_RMSDm:		8.1524
########## Cluster Size:	1
##########    Grid Score:          -14.083149
##########      Grid_vdw:          -11.283133
##########       Grid_es:           -2.800016
##########    Int_energy:            5.216888

@<TRIPOS>MOLECULE
ligand
 24 24 1 0 0
SMALL
No Charge or Current Charge


@<TRIPOS>ATOM
      1 H1         16.2664   16.8815   28.0668 H       1  lig         0.1313
      2 H2         18.8165   13.4664   27.8004 H       1  lig         0.1473
      3 H3         15.4597   16.4100   25.8135 H       1  lig         0.1394
      4 H4         18.0440   13.0150   25.5034 H       1  lig         0.1574
      5 H5         17.2307   15.7588   30.0778 H       1  lig         0.1170
      6 H6         18.4947   14.5817   29.9228 H       1  lig         0.0678
      7 H7         19.2515   16.9262   30.6406 H       1  lig         0.0912
      8 H8         17.7966   18.1199   29.0887 H       1  lig         0.4249
      9 H9         19.3803   18.5269   28.7731 H       1  lig         0.4256
     10 H10        18.5903   17.4387   27.7828 H       1  lig         0.4835
     11 H11        16.9761   14.3699   23.7044 H       1  lig         0.4236
     12 C1         16.6685   16.0346   27.5144 C.ar    1  lig        -0.1098
     13 C2         18.0764   14.1235   27.3461 C.ar    1  lig        -0.0948
     14 C3         16.2143   15.7651   26.2527 C.ar    1  lig        -0.2079
     15 C4         17.6541   13.8654   26.0560 C.ar    1  lig        -0.1468
     16 C5         17.6077   15.2173   28.0647 C.ar    1  lig        -0.1510
     17 C6         16.7091   14.7261   25.5100 C.ar    1  lig         0.1263
     18 C7         20.4998   16.0843   29.1595 C.2     1  lig         0.9365
     19 C8         18.1001   15.4946   29.4724 C.3     1  lig        -0.0459
     20 C9         19.1498   16.5985   29.6044 C.3     1  lig        -0.0743
     21 N1         18.7087   17.7309   28.7910 N.4     1  lig        -0.8330
     22 O1         21.4022   16.2379   29.9797 O.co2   1  lig        -0.7110
     23 O2         20.7084   15.5651   28.0256 O.co2   1  lig        -0.8016
     24 O3         16.2253   14.5278   24.3489 O.3     1  lig        -0.4958
@<TRIPOS>BOND
     1    20    21    1
     2     8    21    1
     3     9    21    1
     4    10    21    1
     5    18    20    1
     6    19    20    1
     7     7    20    1
     8    18    23    1
     9    18    22    1
    10    16    19    1
    11     5    19    1
    12     6    19    1
    13    12    16   ar
    14    13    16   ar
    15    12    14   ar
    16     1    12    1
    17    13    15   ar
    18     2    13    1
    19    14    17   ar
    20     3    14    1
    21    15    17   ar
    22     4    15    1
    23    17    24    1
    24    11    24    1
@<TRIPOS>SUBSTRUCTURE
     1 lig         1 TEMP              0 ****  ****    0 ROOT


########## Name:		ligand
########## HA_RMSDs:		13.5047
########## HA_RMSDh:		13.4651
########## HA_RMSDm:		8.6541
########## Cluster Size:	1
##########    Grid Score:          -13.863458
##########      Grid_vdw:          -11.945486
##########       Grid_es:           -1.917971
##########    Int_energy:            1.922396

@<TRIPOS>MOLECULE
ligand
 24 24 1 0 0
SMALL
No Charge or Current Charge


@<TRIPOS>ATOM
      1 H1         17.3118   18.9664   29.5031 H       1  lig         0.1313
      2 H2         14.2878   15.9534   29.3816 H       1  lig         0.1473
      3 H3         17.4157   18.9094   27.0667 H       1  lig         0.1394
      4 H4         14.4254   15.8536   26.9223 H       1  lig         0.1574
      5 H5         16.3330   16.6681   31.4939 H       1  lig         0.1170
      6 H6         16.2041   18.3974   31.4885 H       1  lig         0.0678
      7 H7         13.8318   16.4631   31.4047 H       1  lig         0.0912
      8 H8         13.4566   18.5272   30.1602 H       1  lig         0.4249
      9 H9         12.5764   18.5755   31.5731 H       1  lig         0.4256
     10 H10        14.0031   19.4355   31.4546 H       1  lig         0.4835
     11 H11        16.8723   17.9505   25.3264 H       1  lig         0.4236
     12 C1         16.6779   18.2756   28.9506 C.ar    1  lig        -0.1098
     13 C2         14.9896   16.6012   28.8584 C.ar    1  lig        -0.0948
     14 C3         16.7307   18.2453   27.5842 C.ar    1  lig        -0.2079
     15 C4         15.0634   16.5337   27.4802 C.ar    1  lig        -0.1468
     16 C5         15.8104   17.4478   29.5947 C.ar    1  lig        -0.1510
     17 C6         15.9710   17.3752   26.8480 C.ar    1  lig         0.1263
     18 C7         14.3952   17.4015   33.2111 C.2     1  lig         0.9365
     19 C8         15.7280   17.4913   31.1087 C.3     1  lig        -0.0459
     20 C9         14.3219   17.3923   31.7013 C.3     1  lig        -0.0743
     21 N1         13.5442   18.5211   31.1918 N.4     1  lig        -0.8330
     22 O1         14.3725   18.5209   33.7181 O.co2   1  lig        -0.7110
     23 O2         14.5043   16.3533   33.9097 O.co2   1  lig        -0.8016
     24 O3         16.0627   17.4166   25.5786 O.3     1  lig        -0.4958
@<TRIPOS>BOND
     1    20    21    1
     2     8    21    1
     3     9    21    1
     4    10    21    1
     5    18    20    1
     6    19    20    1
     7     7    20    1
     8    18    23    1
     9    18    22    1
    10    16    19    1
    11     5    19    1
    12     6    19    1
    13    12    16   ar
    14    13    16   ar
    15    12    14   ar
    16     1    12    1
    17    13    15   ar
    18     2    13    1
    19    14    17   ar
    20     3    14    1
    21    15    17   ar
    22     4    15    1
    23    17    24    1
    24    11    24    1
@<TRIPOS>SUBSTRUCTURE
     1 lig         1 TEMP              0 ****  ****    0 ROOT


########## Name:		ligand
########## HA_RMSDs:		16.1193
########## HA_RMSDh:		16.0579
########## HA_RMSDm:		13.3410
########## Cluster Size:	1
##########    Grid Score:          -13.843998
##########      Grid_vdw:          -11.119694
##########       Grid_es:           -2.724305
##########    Int_energy:            2.787640

@<TRIPOS>MOLECULE
ligand
 24 24 1 0 0
SMALL
No Charge or Current Charge


@<TRIPOS>ATOM
      1 H1         30.4713    7.0357   13.2306 H       1  lig         0.1313
      2 H2         28.2508    6.5883   16.8508 H       1  lig         0.1473
      3 H3         32.5348    6.7958   14.5091 H       1  lig         0.1394
      4 H4         30.3336    6.3977   18.1555 H       1  lig         0.1574
      5 H5         28.1650    6.6921   13.1416 H       1  lig         0.1170
      6 H6         27.2112    6.2534   14.5219 H       1  lig         0.0678
      7 H7         26.6403    8.4964   13.3152 H       1  lig         0.0912
      8 H8         28.9521    9.2708   13.2370 H       1  lig         0.4249
      9 H9         28.0485   10.3435   14.1350 H       1  lig         0.4256
     10 H10        29.0423    9.2460   14.9075 H       1  lig         0.4835
     11 H11        32.5906    6.7696   17.9417 H       1  lig         0.4236
     12 C1         30.4268    6.9022   14.3097 C.ar    1  lig        -0.1098
     13 C2         29.2099    6.6440   16.3383 C.ar    1  lig        -0.0948
     14 C3         31.5822    6.7625   15.0281 C.ar    1  lig        -0.2079
     15 C4         30.3718    6.5419   17.0792 C.ar    1  lig        -0.1468
     16 C5         29.2342    6.8499   14.9637 C.ar    1  lig        -0.1510
     17 C6         31.5765    6.6180   16.3902 C.ar    1  lig         0.1263
     18 C7         26.4679    8.5488   15.4195 C.2     1  lig         0.9365
     19 C8         27.9469    6.9802   14.1720 C.3     1  lig        -0.0459
     20 C9         27.3030    8.3671   14.1728 C.3     1  lig        -0.0743
     21 N1         28.3775    9.3560   14.0941 N.4     1  lig        -0.8330
     22 O1         26.9971    9.2288   16.2959 O.co2   1  lig        -0.7110
     23 O2         25.3287    8.0235   15.5776 O.co2   1  lig        -0.8016
     24 O3         32.6917    6.4773   16.9885 O.3     1  lig        -0.4958
@<TRIPOS>BOND
     1    20    21    1
     2     8    21    1
     3     9    21    1
     4    10    21    1
     5    18    20    1
     6    19    20    1
     7     7    20    1
     8    18    23    1
     9    18    22    1
    10    16    19    1
    11     5    19    1
    12     6    19    1
    13    12    16   ar
    14    13    16   ar
    15    12    14   ar
    16     1    12    1
    17    13    15   ar
    18     2    13    1
    19    14    17   ar
    20     3    14    1
    21    15    17   ar
    22     4    15    1
    23    17    24    1
    24    11    24    1
@<TRIPOS>SUBSTRUCTURE
     1 lig         1 TEMP              0 ****  ****    0 ROOT


########## Name:		ligand
########## HA_RMSDs:		15.5512
########## HA_RMSDh:		15.5273
########## HA_RMSDm:		13.4434
########## Cluster Size:	1
##########    Grid Score:          -13.830418
##########      Grid_vdw:          -11.096710
##########       Grid_es:           -2.733707
##########    Int_energy:            1.012936

@<TRIPOS>MOLECULE
ligand
 24 24 1 0 0
SMALL
No Charge or Current Charge


@<TRIPOS>ATOM
      1 H1         10.7677    7.1980   22.2013 H       1  lig         0.1313
      2 H2          6.7393    6.4633   23.4132 H       1  lig         0.1473
      3 H3          9.9267    8.2237   20.1541 H       1  lig         0.1394
      4 H4          5.8846    7.4513   21.3227 H       1  lig         0.1574
      5 H5          8.8162    5.1651   24.3331 H       1  lig         0.1170
      6 H6         10.3820    5.8760   24.1090 H       1  lig         0.0678
      7 H7          8.2555    7.6039   25.3939 H       1  lig         0.0912
      8 H8         10.4825    8.4407   24.8551 H       1  lig         0.4249
      9 H9         10.3137    8.3679   26.5103 H       1  lig         0.4256
     10 H10        11.1868    7.1887   25.7128 H       1  lig         0.4835
     11 H11         8.3283    8.7451   19.0075 H       1  lig         0.4236
     12 C1          9.6958    7.2417   22.0189 C.ar    1  lig        -0.1098
     13 C2          7.4430    6.8484   22.6768 C.ar    1  lig        -0.0948
     14 C3          9.2215    7.8207   20.8742 C.ar    1  lig        -0.2079
     15 C4          6.9542    7.3951   21.5056 C.ar    1  lig        -0.1468
     16 C5          8.8073    6.7465   22.9234 C.ar    1  lig        -0.1510
     17 C6          7.8827    7.8757   20.5898 C.ar    1  lig         0.1263
     18 C7          8.9123    6.0480   26.6622 C.2     1  lig         0.9365
     19 C8          9.3233    6.1238   24.2067 C.3     1  lig        -0.0459
     20 C9          9.1309    6.9569   25.4744 C.3     1  lig        -0.0743
     21 N1         10.3210    7.7898   25.6439 N.4     1  lig        -0.8330
     22 O1          9.9437    5.6511   27.2002 O.co2   1  lig        -0.7110
     23 O2          7.7683    5.6888   27.0634 O.co2   1  lig        -0.8016
     24 O3          7.5159    8.4450   19.5115 O.3     1  lig        -0.4958
@<TRIPOS>BOND
     1    20    21    1
     2     8    21    1
     3     9    21    1
     4    10    21    1
     5    18    20    1
     6    19    20    1
     7     7    20    1
     8    18    23    1
     9    18    22    1
    10    16    19    1
    11     5    19    1
    12     6    19    1
    13    12    16   ar
    14    13    16   ar
    15    12    14   ar
    16     1    12    1
    17    13    15   ar
    18     2    13    1
    19    14    17   ar
    20     3    14    1
    21    15    17   ar
    22     4    15    1
    23    17    24    1
    24    11    24    1
@<TRIPOS>SUBSTRUCTURE
     1 lig         1 TEMP              0 ****  ****    0 ROOT


########## Name:		ligand
########## HA_RMSDs:		16.4074
########## HA_RMSDh:		16.3874
########## HA_RMSDm:		14.4545
########## Cluster Size:	1
##########    Grid Score:          -13.824584
##########      Grid_vdw:          -10.904043
##########       Grid_es:           -2.920541
##########    Int_energy:            1.255212

@<TRIPOS>MOLECULE
ligand
 24 24 1 0 0
SMALL
No Charge or Current Charge


@<TRIPOS>ATOM
      1 H1          9.8785    5.7815   21.3706 H       1  lig         0.1313
      2 H2          5.9540    5.6434   23.0489 H       1  lig         0.1473
      3 H3          9.1837    7.6708   19.9928 H       1  lig         0.1394
      4 H4          5.2308    7.5185   21.6214 H       1  lig         0.1574
      5 H5          7.5952    3.6641   23.1067 H       1  lig         0.1170
      6 H6          9.2661    3.9317   22.7275 H       1  lig         0.0678
      7 H7          7.8363    5.3011   25.0634 H       1  lig         0.0912
      8 H8          9.7588    6.4833   24.1380 H       1  lig         0.4249
      9 H9         10.1740    5.8431   25.6183 H       1  lig         0.4256
     10 H10        10.6834    5.0911   24.2168 H       1  lig         0.4835
     11 H11         6.3328    9.3317   20.4828 H       1  lig         0.4236
     12 C1          8.8557    6.1482   21.4314 C.ar    1  lig        -0.1098
     13 C2          6.6643    6.0942   22.3575 C.ar    1  lig        -0.0948
     14 C3          8.4650    7.2105   20.6636 C.ar    1  lig        -0.2079
     15 C4          6.2477    7.1410   21.5575 C.ar    1  lig        -0.1468
     16 C5          7.9537    5.5806   22.2782 C.ar    1  lig        -0.1510
     17 C6          7.1822    7.6901   20.6875 C.ar    1  lig         0.1263
     18 C7          8.8509    3.4818   25.4118 C.2     1  lig         0.9365
     19 C8          8.3846    4.4172   23.1508 C.3     1  lig        -0.0459
     20 C9          8.6674    4.7533   24.6154 C.3     1  lig        -0.0743
     21 N1          9.8640    5.5930   24.6558 N.4     1  lig        -0.8330
     22 O1         10.0029    3.0542   25.4356 O.co2   1  lig        -0.7110
     23 O2          7.9010    2.8762   25.9860 O.co2   1  lig        -0.8016
     24 O3          6.8973    8.6928   19.9562 O.3     1  lig        -0.4958
@<TRIPOS>BOND
     1    20    21    1
     2     8    21    1
     3     9    21    1
     4    10    21    1
     5    18    20    1
     6    19    20    1
     7     7    20    1
     8    18    23    1
     9    18    22    1
    10    16    19    1
    11     5    19    1
    12     6    19    1
    13    12    16   ar
    14    13    16   ar
    15    12    14   ar
    16     1    12    1
    17    13    15   ar
    18     2    13    1
    19    14    17   ar
    20     3    14    1
    21    15    17   ar
    22     4    15    1
    23    17    24    1
    24    11    24    1
@<TRIPOS>SUBSTRUCTURE
     1 lig         1 TEMP              0 ****  ****    0 ROOT


########## Name:		ligand
########## HA_RMSDs:		11.3436
########## HA_RMSDh:		11.2982
########## HA_RMSDm:		9.8647
########## Cluster Size:	1
##########    Grid Score:          -13.814166
##########      Grid_vdw:          -13.250961
##########       Grid_es:           -0.563205
##########    Int_energy:            1.293672

@<TRIPOS>MOLECULE
ligand
 24 24 1 0 0
SMALL
No Charge or Current Charge


@<TRIPOS>ATOM
      1 H1         10.2800   12.3401   26.7971 H       1  lig         0.1313
      2 H2         14.3622   11.8810   25.6300 H       1  lig         0.1473
      3 H3         11.0030   13.7820   28.6270 H       1  lig         0.1394
      4 H4         15.1033   13.2947   27.5085 H       1  lig         0.1574
      5 H5         12.5921   10.3466   24.8309 H       1  lig         0.1170
      6 H6         10.9206   10.5817   25.2286 H       1  lig         0.0678
      7 H7         12.4039   12.5526   23.4266 H       1  lig         0.0912
      8 H8         10.3070   13.2526   24.4577 H       1  lig         0.4249
      9 H9         10.0618   13.0230   22.8265 H       1  lig         0.4256
     10 H10         9.5480   11.8642   23.9138 H       1  lig         0.4835
     11 H11        14.3022   14.7316   29.0268 H       1  lig         0.4236
     12 C1         11.3402   12.5362   26.9448 C.ar    1  lig        -0.1098
     13 C2         13.6210   12.3000   26.3088 C.ar    1  lig        -0.0948
     14 C3         11.7478   13.3483   27.9671 C.ar    1  lig        -0.2079
     15 C4         14.0469   13.0865   27.3622 C.ar    1  lig        -0.1468
     16 C5         12.2771   12.0027   26.1140 C.ar    1  lig        -0.1510
     17 C6         13.0720   13.6031   28.2074 C.ar    1  lig         0.1263
     18 C7         11.6202   10.8244   22.4992 C.2     1  lig         0.9365
     19 C8         11.8327   11.1199   24.9633 C.3     1  lig        -0.0459
     20 C9         11.6106   11.8302   23.6276 C.3     1  lig        -0.0743
     21 N1         10.3341   12.5391   23.7079 N.4     1  lig        -0.8330
     22 O1         10.5089   10.4206   22.1636 O.co2   1  lig        -0.7110
     23 O2         12.6788   10.3976   21.9553 O.co2   1  lig        -0.8016
     24 O3         13.3737   14.3823   29.1682 O.3     1  lig        -0.4958
@<TRIPOS>BOND
     1    20    21    1
     2     8    21    1
     3     9    21    1
     4    10    21    1
     5    18    20    1
     6    19    20    1
     7     7    20    1
     8    18    23    1
     9    18    22    1
    10    16    19    1
    11     5    19    1
    12     6    19    1
    13    12    16   ar
    14    13    16   ar
    15    12    14   ar
    16     1    12    1
    17    13    15   ar
    18     2    13    1
    19    14    17   ar
    20     3    14    1
    21    15    17   ar
    22     4    15    1
    23    17    24    1
    24    11    24    1
@<TRIPOS>SUBSTRUCTURE
     1 lig         1 TEMP              0 ****  ****    0 ROOT


########## Name:		ligand
########## HA_RMSDs:		12.0720
########## HA_RMSDh:		11.9902
########## HA_RMSDm:		9.7841
########## Cluster Size:	1
##########    Grid Score:          -13.686230
##########      Grid_vdw:          -11.942526
##########       Grid_es:           -1.743704
##########    Int_energy:            2.006411

@<TRIPOS>MOLECULE
ligand
 24 24 1 0 0
SMALL
No Charge or Current Charge


@<TRIPOS>ATOM
      1 H1         14.6808   11.8000   25.3815 H       1  lig         0.1313
      2 H2         10.6003   12.5501   24.3697 H       1  lig         0.1473
      3 H3         14.9701   10.6808   23.2335 H       1  lig         0.1394
      4 H4         10.8723   11.3744   22.2201 H       1  lig         0.1574
      5 H5         13.2778   13.6218   26.4676 H       1  lig         0.1170
      6 H6         11.5510   13.5761   26.3144 H       1  lig         0.0678
      7 H7         13.1223   11.2691   27.5643 H       1  lig         0.0912
      8 H8         10.8824   10.7979   26.7210 H       1  lig         0.4249
      9 H9         10.8523   10.7808   28.3861 H       1  lig         0.4256
     10 H10        10.2650   12.1077   27.5593 H       1  lig         0.4835
     11 H11        12.3542   10.3632   20.9497 H       1  lig         0.4236
     12 C1         13.8366   11.7089   24.7010 C.ar    1  lig        -0.1098
     13 C2         11.5679   12.1214   24.1132 C.ar    1  lig        -0.0948
     14 C3         13.9975   11.0862   23.4939 C.ar    1  lig        -0.2079
     15 C4         11.7087   11.4593   22.9085 C.ar    1  lig        -0.1468
     16 C5         12.6175   12.2242   25.0188 C.ar    1  lig        -0.1510
     17 C6         12.9581   10.9252   22.6164 C.ar    1  lig         0.1263
     18 C7         12.5443   12.8561   28.8324 C.2     1  lig         0.9365
     19 C8         12.4359   12.9373   26.3453 C.3     1  lig        -0.0459
     20 C9         12.3464   12.0368   27.5777 C.3     1  lig        -0.0743
     21 N1         11.0367   11.3864   27.5588 N.4     1  lig        -0.8330
     22 O1         11.8110   12.5449   29.7684 O.co2   1  lig        -0.7110
     23 O2         13.3702   13.8096   28.9187 O.co2   1  lig        -0.8016
     24 O3         13.1886   10.3490   21.5045 O.3     1  lig        -0.4958
@<TRIPOS>BOND
     1    20    21    1
     2     8    21    1
     3     9    21    1
     4    10    21    1
     5    18    20    1
     6    19    20    1
     7     7    20    1
     8    18    23    1
     9    18    22    1
    10    16    19    1
    11     5    19    1
    12     6    19    1
    13    12    16   ar
    14    13    16   ar
    15    12    14   ar
    16     1    12    1
    17    13    15   ar
    18     2    13    1
    19    14    17   ar
    20     3    14    1
    21    15    17   ar
    22     4    15    1
    23    17    24    1
    24    11    24    1
@<TRIPOS>SUBSTRUCTURE
     1 lig         1 TEMP              0 ****  ****    0 ROOT


########## Name:		ligand
########## HA_RMSDs:		11.4200
########## HA_RMSDh:		11.3868
########## HA_RMSDm:		9.0206
########## Cluster Size:	1
##########    Grid Score:          -13.434316
##########      Grid_vdw:          -10.972530
##########       Grid_es:           -2.461786
##########    Int_energy:            3.644224

@<TRIPOS>MOLECULE
ligand
 24 24 1 0 0
SMALL
No Charge or Current Charge


@<TRIPOS>ATOM
      1 H1         17.9098   17.5091   27.5008 H       1  lig         0.1313
      2 H2         15.0562   14.3392   27.7157 H       1  lig         0.1473
      3 H3         16.1929   19.0587   28.2766 H       1  lig         0.1394
      4 H4         13.3031   15.9092   28.4496 H       1  lig         0.1574
      5 H5         17.1704   14.1346   26.4156 H       1  lig         0.1170
      6 H6         18.3837   15.3732   26.4458 H       1  lig         0.0678
      7 H7         19.1327   13.4218   27.7637 H       1  lig         0.0912
      8 H8         16.8990   12.6491   28.3667 H       1  lig         0.4249
      9 H9         17.8052   12.8301   29.7522 H       1  lig         0.4256
     10 H10        16.6732   13.9882   29.3440 H       1  lig         0.4835
     11 H11        12.9451   18.0097   28.9907 H       1  lig         0.4236
     12 C1         16.9032   17.1462   27.6995 C.ar    1  lig        -0.1098
     13 C2         15.2982   15.3944   27.8331 C.ar    1  lig        -0.0948
     14 C3         15.9402   18.0121   28.1393 C.ar    1  lig        -0.2079
     15 C4         14.3072   16.2674   28.2394 C.ar    1  lig        -0.1468
     16 C5         16.5840   15.8329   27.5381 C.ar    1  lig        -0.1510
     17 C6         14.6538   17.6063   28.3776 C.ar    1  lig         0.1263
     18 C7         19.1389   15.0905   29.0585 C.2     1  lig         0.9365
     19 C8         17.6519   14.8609   27.0734 C.3     1  lig        -0.0459
     20 C9         18.3954   14.1111   28.1793 C.3     1  lig        -0.0743
     21 N1         17.4076   13.3459   28.9392 N.4     1  lig        -0.8330
     22 O1         18.9372   14.9528   30.2631 O.co2   1  lig        -0.7110
     23 O2         19.8863   16.0045   28.6060 O.co2   1  lig        -0.8016
     24 O3         13.8163   18.4670   28.8009 O.3     1  lig        -0.4958
@<TRIPOS>BOND
     1    20    21    1
     2     8    21    1
     3     9    21    1
     4    10    21    1
     5    18    20    1
     6    19    20    1
     7     7    20    1
     8    18    23    1
     9    18    22    1
    10    16    19    1
    11     5    19    1
    12     6    19    1
    13    12    16   ar
    14    13    16   ar
    15    12    14   ar
    16     1    12    1
    17    13    15   ar
    18     2    13    1
    19    14    17   ar
    20     3    14    1
    21    15    17   ar
    22     4    15    1
    23    17    24    1
    24    11    24    1
@<TRIPOS>SUBSTRUCTURE
     1 lig         1 TEMP              0 ****  ****    0 ROOT


########## Name:		ligand
########## HA_RMSDs:		14.0112
########## HA_RMSDh:		13.9408
########## HA_RMSDm:		9.1469
########## Cluster Size:	2
##########    Grid Score:          -13.154925
##########      Grid_vdw:          -11.965172
##########       Grid_es:           -1.189753
##########    Int_energy:            2.518233

@<TRIPOS>MOLECULE
ligand
 24 24 1 0 0
SMALL
No Charge or Current Charge


@<TRIPOS>ATOM
      1 H1         13.5726   18.4027   30.0629 H       1  lig         0.1313
      2 H2         17.5621   19.4439   28.9506 H       1  lig         0.1473
      3 H3         13.5026   16.8290   28.2004 H       1  lig         0.1394
      4 H4         17.4788   17.8938   27.0357 H       1  lig         0.1574
      5 H5         16.3684   20.7622   30.5383 H       1  lig         0.1170
      6 H6         14.6778   20.5511   30.8616 H       1  lig         0.0678
      7 H7         16.9226   18.8892   32.1165 H       1  lig         0.0912
      8 H8         14.8646   17.6333   31.7457 H       1  lig         0.4249
      9 H9         15.0244   17.9490   33.3731 H       1  lig         0.4256
     10 H10        13.9641   18.8534   32.4528 H       1  lig         0.4835
     11 H11        16.1846   16.4441   26.0046 H       1  lig         0.4236
     12 C1         14.4333   18.3054   29.4041 C.ar    1  lig        -0.1098
     13 C2         16.6575   18.8651   28.7700 C.ar    1  lig        -0.0948
     14 C3         14.3984   17.4201   28.3621 C.ar    1  lig        -0.2079
     15 C4         16.6187   18.0032   27.6906 C.ar    1  lig        -0.1468
     16 C5         15.5625   19.0374   29.6088 C.ar    1  lig        -0.1510
     17 C6         15.4472   17.2820   27.4921 C.ar    1  lig         0.1263
     18 C7         16.0197   20.4679   33.1904 C.2     1  lig         0.9365
     19 C8         15.6190   20.0045   30.7761 C.3     1  lig        -0.0459
     20 C9         15.9518   19.3878   32.1351 C.3     1  lig        -0.0743
     21 N1         14.9179   18.3995   32.4400 N.4     1  lig        -0.8330
     22 O1         14.9463   20.7230   33.7320 O.co2   1  lig        -0.7110
     23 O2         17.0804   21.0915   33.4818 O.co2   1  lig        -0.8016
     24 O3         15.3475   16.4255   26.5552 O.3     1  lig        -0.4958
@<TRIPOS>BOND
     1    20    21    1
     2     8    21    1
     3     9    21    1
     4    10    21    1
     5    18    20    1
     6    19    20    1
     7     7    20    1
     8    18    23    1
     9    18    22    1
    10    16    19    1
    11     5    19    1
    12     6    19    1
    13    12    16   ar
    14    13    16   ar
    15    12    14   ar
    16     1    12    1
    17    13    15   ar
    18     2    13    1
    19    14    17   ar
    20     3    14    1
    21    15    17   ar
    22     4    15    1
    23    17    24    1
    24    11    24    1
@<TRIPOS>SUBSTRUCTURE
     1 lig         1 TEMP              0 ****  ****    0 ROOT


########## Name:		ligand
########## HA_RMSDs:		14.1268
########## HA_RMSDh:		14.1084
########## HA_RMSDm:		12.4831
########## Cluster Size:	1
##########    Grid Score:          -13.136769
##########      Grid_vdw:           -8.386945
##########       Grid_es:           -4.749825
##########    Int_energy:            0.984998

@<TRIPOS>MOLECULE
ligand
 24 24 1 0 0
SMALL
No Charge or Current Charge


@<TRIPOS>ATOM
      1 H1         18.5384    2.8597   22.1355 H       1  lig         0.1313
      2 H2         19.3568    6.4415   19.9589 H       1  lig         0.1473
      3 H3         17.8467    4.2179   24.0400 H       1  lig         0.1394
      4 H4         18.7089    7.8190   21.8978 H       1  lig         0.1574
      5 H5         18.8778    2.7840   19.7986 H       1  lig         0.1170
      6 H6         19.0933    4.1966   18.8160 H       1  lig         0.0678
      7 H7         21.4743    3.8397   20.4735 H       1  lig         0.0912
      8 H8         21.2856    5.0690   18.3751 H       1  lig         0.4249
      9 H9         22.4115    3.8550   18.1958 H       1  lig         0.4256
     10 H10        20.8785    3.6650   17.5612 H       1  lig         0.4835
     11 H11        17.9661    7.7027   23.9646 H       1  lig         0.4236
     12 C1         18.5862    3.9450   22.0718 C.ar    1  lig        -0.1098
     13 C2         19.0291    5.9540   20.8758 C.ar    1  lig        -0.0948
     14 C3         18.1942    4.7089   23.1365 C.ar    1  lig        -0.2079
     15 C4         18.6735    6.7348   21.9590 C.ar    1  lig        -0.1468
     16 C5         19.0120    4.5653   20.9375 C.ar    1  lig        -0.1510
     17 C6         18.2611    6.0767   23.1117 C.ar    1  lig         0.1263
     18 C7         21.1478    1.9298   19.6330 C.2     1  lig         0.9365
     19 C8         19.4263    3.7266   19.7434 C.3     1  lig        -0.0459
     20 C9         20.9208    3.4242   19.6294 C.3     1  lig        -0.0743
     21 N1         21.4062    4.0409   18.3955 N.4     1  lig        -0.8330
     22 O1         21.1703    1.4125   18.5183 O.co2   1  lig        -0.7110
     23 O2         21.2737    1.2468   20.6896 O.co2   1  lig        -0.8016
     24 O3         17.8632    6.7207   24.1355 O.3     1  lig        -0.4958
@<TRIPOS>BOND
     1    20    21    1
     2     8    21    1
     3     9    21    1
     4    10    21    1
     5    18    20    1
     6    19    20    1
     7     7    20    1
     8    18    23    1
     9    18    22    1
    10    16    19    1
    11     5    19    1
    12     6    19    1
    13    12    16   ar
    14    13    16   ar
    15    12    14   ar
    16     1    12    1
    17    13    15   ar
    18     2    13    1
    19    14    17   ar
    20     3    14    1
    21    15    17   ar
    22     4    15    1
    23    17    24    1
    24    11    24    1
@<TRIPOS>SUBSTRUCTURE
     1 lig         1 TEMP              0 ****  ****    0 ROOT


########## Name:		ligand
########## HA_RMSDs:		12.4001
########## HA_RMSDh:		12.3013
########## HA_RMSDm:		8.5689
########## Cluster Size:	1
##########    Grid Score:          -13.105821
##########      Grid_vdw:          -11.288010
##########       Grid_es:           -1.817811
##########    Int_energy:            2.099659

@<TRIPOS>MOLECULE
ligand
 24 24 1 0 0
SMALL
No Charge or Current Charge


@<TRIPOS>ATOM
      1 H1         19.5680   15.1406   26.8016 H       1  lig         0.1313
      2 H2         23.7743   14.6494   27.3517 H       1  lig         0.1473
      3 H3         19.6774   13.6259   24.8926 H       1  lig         0.1394
      4 H4         23.9004   13.1595   25.3918 H       1  lig         0.1574
      5 H5         22.6074   15.9915   28.8043 H       1  lig         0.1170
      6 H6         21.3694   16.9515   28.0607 H       1  lig         0.0678
      7 H7         19.7973   14.9386   29.0794 H       1  lig         0.0912
      8 H8         19.5749   17.3479   29.3897 H       1  lig         0.4249
      9 H9         19.4349   16.5931   30.8676 H       1  lig         0.4256
     10 H10        20.8637   17.3538   30.4566 H       1  lig         0.4835
     11 H11        22.5175   12.7410   23.4026 H       1  lig         0.4236
     12 C1         20.5246   14.7182   26.5001 C.ar    1  lig        -0.1098
     13 C2         22.8679   14.4244   26.7917 C.ar    1  lig        -0.0948
     14 C3         20.5878   13.8648   25.4332 C.ar    1  lig        -0.2079
     15 C4         22.9500   13.5929   25.6912 C.ar    1  lig        -0.1468
     16 C5         21.6673   15.0071   27.1809 C.ar    1  lig        -0.1510
     17 C6         21.7723   13.3293   25.0016 C.ar    1  lig         0.1263
     18 C7         21.3260   14.6782   30.5132 C.2     1  lig         0.9365
     19 C8         21.6030   15.9339   28.3800 C.3     1  lig        -0.0459
     20 C9         20.6224   15.5295   29.4813 C.3     1  lig        -0.0743
     21 N1         20.0840   16.7555   30.0693 N.4     1  lig        -0.8330
     22 O1         22.2131   15.2573   31.1364 O.co2   1  lig        -0.7110
     23 O2         21.0584   13.4581   30.7096 O.co2   1  lig        -0.8016
     24 O3         21.7497   12.5298   24.0109 O.3     1  lig        -0.4958
@<TRIPOS>BOND
     1    20    21    1
     2     8    21    1
     3     9    21    1
     4    10    21    1
     5    18    20    1
     6    19    20    1
     7     7    20    1
     8    18    23    1
     9    18    22    1
    10    16    19    1
    11     5    19    1
    12     6    19    1
    13    12    16   ar
    14    13    16   ar
    15    12    14   ar
    16     1    12    1
    17    13    15   ar
    18     2    13    1
    19    14    17   ar
    20     3    14    1
    21    15    17   ar
    22     4    15    1
    23    17    24    1
    24    11    24    1
@<TRIPOS>SUBSTRUCTURE
     1 lig         1 TEMP              0 ****  ****    0 ROOT


########## Name:		ligand
########## HA_RMSDs:		11.9126
########## HA_RMSDh:		11.8523
########## HA_RMSDm:		8.9470
########## Cluster Size:	1
##########    Grid Score:          -13.030583
##########      Grid_vdw:           -8.239572
##########       Grid_es:           -4.791012
##########    Int_energy:            2.717855

@<TRIPOS>MOLECULE
ligand
 24 24 1 0 0
SMALL
No Charge or Current Charge


@<TRIPOS>ATOM
      1 H1         19.0407   13.7515   28.4892 H       1  lig         0.1313
      2 H2         22.2254   12.6829   25.8524 H       1  lig         0.1473
      3 H3         17.4555   13.3491   26.6794 H       1  lig         0.1394
      4 H4         20.6332   12.3252   24.0047 H       1  lig         0.1574
      5 H5         21.1552   13.5286   29.3362 H       1  lig         0.1170
      6 H6         22.3884   12.6367   28.5050 H       1  lig         0.0678
      7 H7         22.9155   14.9211   27.2707 H       1  lig         0.0912
      8 H8         24.3283   13.7896   28.9060 H       1  lig         0.4249
      9 H9         24.3585   15.4283   29.2013 H       1  lig         0.4256
     10 H10        23.4275   14.4291   30.1626 H       1  lig         0.4835
     11 H11        17.8125   13.5049   23.9036 H       1  lig         0.4236
     12 C1         19.4037   13.4449   27.5102 C.ar    1  lig        -0.1098
     13 C2         21.1617   12.8392   26.0252 C.ar    1  lig        -0.0948
     14 C3         18.5166   13.2138   26.4952 C.ar    1  lig        -0.2079
     15 C4         20.2778   12.6418   24.9815 C.ar    1  lig        -0.1468
     16 C5         20.7326   13.2645   27.2772 C.ar    1  lig        -0.1510
     17 C6         18.9284   12.8516   25.2401 C.ar    1  lig         0.1263
     18 C7         21.7491   15.9702   28.6848 C.2     1  lig         0.9365
     19 C8         21.7220   13.4955   28.4035 C.3     1  lig        -0.0459
     20 C9         22.5703   14.7629   28.2941 C.3     1  lig        -0.0743
     21 N1         23.7331   14.5961   29.1653 N.4     1  lig        -0.8330
     22 O1         22.1360   17.0314   28.2003 O.co2   1  lig        -0.7110
     23 O2         20.7607   15.9155   29.4715 O.co2   1  lig        -0.8016
     24 O3         18.0426   12.6381   24.3506 O.3     1  lig        -0.4958
@<TRIPOS>BOND
     1    20    21    1
     2     8    21    1
     3     9    21    1
     4    10    21    1
     5    18    20    1
     6    19    20    1
     7     7    20    1
     8    18    23    1
     9    18    22    1
    10    16    19    1
    11     5    19    1
    12     6    19    1
    13    12    16   ar
    14    13    16   ar
    15    12    14   ar
    16     1    12    1
    17    13    15   ar
    18     2    13    1
    19    14    17   ar
    20     3    14    1
    21    15    17   ar
    22     4    15    1
    23    17    24    1
    24    11    24    1
@<TRIPOS>SUBSTRUCTURE
     1 lig         1 TEMP              0 ****  ****    0 ROOT


########## Name:		ligand
########## HA_RMSDs:		15.0113
########## HA_RMSDh:		14.9770
########## HA_RMSDm:		11.5737
########## Cluster Size:	1
##########    Grid Score:          -12.951169
##########      Grid_vdw:           -7.204833
##########       Grid_es:           -5.746336
##########    Int_energy:            4.455823

@<TRIPOS>MOLECULE
ligand
 24 24 1 0 0
SMALL
No Charge or Current Charge


@<TRIPOS>ATOM
      1 H1         21.9947   18.9846   32.1663 H       1  lig         0.1313
      2 H2         23.5435   17.4065   28.5129 H       1  lig         0.1473
      3 H3         20.3698   17.1662   32.2209 H       1  lig         0.1394
      4 H4         21.8700   15.5966   28.5350 H       1  lig         0.1574
      5 H5         23.9996   19.7464   29.2537 H       1  lig         0.1170
      6 H6         23.4936   20.3220   30.8093 H       1  lig         0.0678
      7 H7         25.5366   19.7986   31.6605 H       1  lig         0.0912
      8 H8         26.2841   20.1330   29.3627 H       1  lig         0.4249
      9 H9         27.1974   18.9291   30.0628 H       1  lig         0.4256
     10 H10        25.9710   18.5295   29.0019 H       1  lig         0.4835
     11 H11        19.5730   15.5256   31.3140 H       1  lig         0.4236
     12 C1         21.9748   18.2526   31.3614 C.ar    1  lig        -0.1098
     13 C2         22.8258   17.3517   29.3300 C.ar    1  lig        -0.0948
     14 C3         21.0679   17.2292   31.3922 C.ar    1  lig        -0.2079
     15 C4         21.8880   16.3368   29.3303 C.ar    1  lig        -0.1468
     16 C5         22.8546   18.3218   30.3251 C.ar    1  lig        -0.1510
     17 C6         20.9885   16.2997   30.3892 C.ar    1  lig         0.1263
     18 C7         25.2283   17.7166   31.4845 C.2     1  lig         0.9365
     19 C8         23.8794   19.4398   30.2948 C.3     1  lig        -0.0459
     20 C9         25.2534   19.0984   30.8724 C.3     1  lig        -0.0743
     21 N1         26.2277   19.1897   29.7856 N.4     1  lig        -0.8330
     22 O1         25.4917   16.8053   30.7029 O.co2   1  lig        -0.7110
     23 O2         24.9304   17.4954   32.6933 O.co2   1  lig        -0.8016
     24 O3         20.1289   15.3664   30.4957 O.3     1  lig        -0.4958
@<TRIPOS>BOND
     1    20    21    1
     2     8    21    1
     3     9    21    1
     4    10    21    1
     5    18    20    1
     6    19    20    1
     7     7    20    1
     8    18    23    1
     9    18    22    1
    10    16    19    1
    11     5    19    1
    12     6    19    1
    13    12    16   ar
    14    13    16   ar
    15    12    14   ar
    16     1    12    1
    17    13    15   ar
    18     2    13    1
    19    14    17   ar
    20     3    14    1
    21    15    17   ar
    22     4    15    1
    23    17    24    1
    24    11    24    1
@<TRIPOS>SUBSTRUCTURE
     1 lig         1 TEMP              0 ****  ****    0 ROOT


########## Name:		ligand
########## HA_RMSDs:		10.9176
########## HA_RMSDh:		10.8624
########## HA_RMSDm:		8.3343
########## Cluster Size:	1
##########    Grid Score:          -12.904778
##########      Grid_vdw:          -12.126481
##########       Grid_es:           -0.778296
##########    Int_energy:            3.438400

@<TRIPOS>MOLECULE
ligand
 24 24 1 0 0
SMALL
No Charge or Current Charge


@<TRIPOS>ATOM
      1 H1         15.1600   14.2920   25.8147 H       1  lig         0.1313
      2 H2         13.6251   16.1414   29.3447 H       1  lig         0.1473
      3 H3         16.6705   16.1851   25.5232 H       1  lig         0.1394
      4 H4         15.1120   18.0818   29.0267 H       1  lig         0.1574
      5 H5         12.6065   14.2169   28.5224 H       1  lig         0.1170
      6 H6         12.7895   13.7318   26.8675 H       1  lig         0.0678
      7 H7         13.2957   11.9478   28.6870 H       1  lig         0.0912
      8 H8         14.6507   13.4371   30.0640 H       1  lig         0.4249
      9 H9         15.5870   12.1525   29.5673 H       1  lig         0.4256
     10 H10        15.7461   13.6350   28.8149 H       1  lig         0.4835
     11 H11        17.4060   17.9413   26.2534 H       1  lig         0.4236
     12 C1         15.1350   15.1181   26.5226 C.ar    1  lig        -0.1098
     13 C2         14.2994   16.1641   28.4900 C.ar    1  lig        -0.0948
     14 C3         15.9843   16.1784   26.3642 C.ar    1  lig        -0.2079
     15 C4         15.1248   17.2588   28.3173 C.ar    1  lig        -0.1468
     16 C5         14.2832   15.1096   27.5843 C.ar    1  lig        -0.1510
     17 C6         15.9711   17.2520   27.2147 C.ar    1  lig         0.1263
     18 C7         14.6200   11.9130   27.0421 C.2     1  lig         0.9365
     19 C8         13.3541   13.9268   27.7813 C.3     1  lig        -0.0459
     20 C9         14.0198   12.6262   28.2320 C.3     1  lig        -0.0743
     21 N1         15.0369   12.9684   29.2255 N.4     1  lig        -0.8330
     22 O1         15.8253   11.6900   27.1330 O.co2   1  lig        -0.7110
     23 O2         13.9568   11.5937   26.0140 O.co2   1  lig        -0.8016
     24 O3         16.8028   18.1947   27.0124 O.3     1  lig        -0.4958
@<TRIPOS>BOND
     1    20    21    1
     2     8    21    1
     3     9    21    1
     4    10    21    1
     5    18    20    1
     6    19    20    1
     7     7    20    1
     8    18    23    1
     9    18    22    1
    10    16    19    1
    11     5    19    1
    12     6    19    1
    13    12    16   ar
    14    13    16   ar
    15    12    14   ar
    16     1    12    1
    17    13    15   ar
    18     2    13    1
    19    14    17   ar
    20     3    14    1
    21    15    17   ar
    22     4    15    1
    23    17    24    1
    24    11    24    1
@<TRIPOS>SUBSTRUCTURE
     1 lig         1 TEMP              0 ****  ****    0 ROOT


########## Name:		ligand
########## HA_RMSDs:		12.2575
########## HA_RMSDh:		12.1742
########## HA_RMSDm:		8.6825
########## Cluster Size:	1
##########    Grid Score:          -12.790937
##########      Grid_vdw:          -12.461516
##########       Grid_es:           -0.329421
##########    Int_energy:            3.351491

@<TRIPOS>MOLECULE
ligand
 24 24 1 0 0
SMALL
No Charge or Current Charge


@<TRIPOS>ATOM
      1 H1         17.3642   16.4104   26.4582 H       1  lig         0.1313
      2 H2         14.3515   17.4689   29.2937 H       1  lig         0.1473
      3 H3         16.1014   14.3928   25.9239 H       1  lig         0.1394
      4 H4         13.0973   15.4059   28.7961 H       1  lig         0.1574
      5 H5         17.1572   18.6833   27.3171 H       1  lig         0.1170
      6 H6         16.0367   19.1068   28.5710 H       1  lig         0.0678
      7 H7         18.3388   19.1228   29.4617 H       1  lig         0.0912
      8 H8         19.2311   17.4840   27.8906 H       1  lig         0.4249
      9 H9         19.5708   16.9901   29.4444 H       1  lig         0.4256
     10 H10        18.3212   16.2724   28.6003 H       1  lig         0.4835
     11 H11        14.4655   13.2317   26.2650 H       1  lig         0.4236
     12 C1         16.4339   16.1998   26.9820 C.ar    1  lig        -0.1098
     13 C2         14.7397   16.7728   28.5517 C.ar    1  lig        -0.0948
     14 C3         15.7215   15.0718   26.6808 C.ar    1  lig        -0.2079
     15 C4         14.0323   15.6164   28.2840 C.ar    1  lig        -0.1468
     16 C5         15.9484   17.0531   27.9249 C.ar    1  lig        -0.1510
     17 C6         14.5593   14.7523   27.3315 C.ar    1  lig         0.1263
     18 C7         17.2381   17.7372   30.6145 C.2     1  lig         0.9365
     19 C8         16.7197   18.3185   28.2486 C.3     1  lig        -0.0459
     20 C9         17.8273   18.1735   29.2927 C.3     1  lig        -0.0743
     21 N1         18.7926   17.1997   28.7844 N.4     1  lig        -0.8330
     22 O1         17.2337   16.5217   30.7971 O.co2   1  lig        -0.7110
     23 O2         16.7545   18.5421   31.4613 O.co2   1  lig        -0.8016
     24 O3         13.9432   13.6932   26.9850 O.3     1  lig        -0.4958
@<TRIPOS>BOND
     1    20    21    1
     2     8    21    1
     3     9    21    1
     4    10    21    1
     5    18    20    1
     6    19    20    1
     7     7    20    1
     8    18    23    1
     9    18    22    1
    10    16    19    1
    11     5    19    1
    12     6    19    1
    13    12    16   ar
    14    13    16   ar
    15    12    14   ar
    16     1    12    1
    17    13    15   ar
    18     2    13    1
    19    14    17   ar
    20     3    14    1
    21    15    17   ar
    22     4    15    1
    23    17    24    1
    24    11    24    1
@<TRIPOS>SUBSTRUCTURE
     1 lig         1 TEMP              0 ****  ****    0 ROOT


########## Name:		ligand
########## HA_RMSDs:		15.2099
########## HA_RMSDh:		15.1516
########## HA_RMSDm:		11.5142
########## Cluster Size:	1
##########    Grid Score:          -12.731479
##########      Grid_vdw:          -12.871601
##########       Grid_es:            0.140123
##########    Int_energy:            3.192089

@<TRIPOS>MOLECULE
ligand
 24 24 1 0 0
SMALL
No Charge or Current Charge


@<TRIPOS>ATOM
      1 H1         17.9885   23.9337   28.7165 H       1  lig         0.1313
      2 H2         18.4183   23.5642   32.9492 H       1  lig         0.1473
      3 H3         16.8148   26.0449   29.0562 H       1  lig         0.1394
      4 H4         17.1871   25.6706   33.3014 H       1  lig         0.1574
      5 H5         19.2677   22.2390   29.5492 H       1  lig         0.1170
      6 H6         19.9554   22.3227   31.1389 H       1  lig         0.0678
      7 H7         18.3554   20.2546   30.2478 H       1  lig         0.0912
      8 H8         16.4174   21.7359   30.2482 H       1  lig         0.4249
      9 H9         16.2283   20.5913   31.4430 H       1  lig         0.4256
     10 H10        16.6980   22.1422   31.8468 H       1  lig         0.4835
     11 H11        16.1614   27.3043   32.2418 H       1  lig         0.4236
     12 C1         17.8148   24.2996   29.7265 C.ar    1  lig        -0.1098
     13 C2         18.0483   24.1180   32.0876 C.ar    1  lig        -0.0948
     14 C3         17.1613   25.4856   29.9195 C.ar    1  lig        -0.2079
     15 C4         17.3543   25.2946   32.2958 C.ar    1  lig        -0.1468
     16 C5         18.2560   23.6067   30.8118 C.ar    1  lig        -0.1510
     17 C6         16.8974   25.9730   31.1720 C.ar    1  lig         0.1263
     18 C7         18.8022   20.4858   32.2991 C.2     1  lig         0.9365
     19 C8         19.0025   22.3022   30.6065 C.3     1  lig        -0.0459
     20 C9         18.2469   21.0338   31.0044 C.3     1  lig        -0.0743
     21 N1         16.8314   21.3799   31.1278 N.4     1  lig        -0.8330
     22 O1         18.2794   20.9410   33.3140 O.co2   1  lig        -0.7110
     23 O2         19.7500   19.6506   32.3524 O.co2   1  lig        -0.8016
     24 O3         16.2985   27.0922   31.2721 O.3     1  lig        -0.4958
@<TRIPOS>BOND
     1    20    21    1
     2     8    21    1
     3     9    21    1
     4    10    21    1
     5    18    20    1
     6    19    20    1
     7     7    20    1
     8    18    23    1
     9    18    22    1
    10    16    19    1
    11     5    19    1
    12     6    19    1
    13    12    16   ar
    14    13    16   ar
    15    12    14   ar
    16     1    12    1
    17    13    15   ar
    18     2    13    1
    19    14    17   ar
    20     3    14    1
    21    15    17   ar
    22     4    15    1
    23    17    24    1
    24    11    24    1
@<TRIPOS>SUBSTRUCTURE
     1 lig         1 TEMP              0 ****  ****    0 ROOT


########## Name:		ligand
########## HA_RMSDs:		13.3054
########## HA_RMSDh:		13.2749
########## HA_RMSDm:		10.5415
########## Cluster Size:	1
##########    Grid Score:          -12.656931
##########      Grid_vdw:          -12.025692
##########       Grid_es:           -0.631239
##########    Int_energy:            1.504316

@<TRIPOS>MOLECULE
ligand
 24 24 1 0 0
SMALL
No Charge or Current Charge


@<TRIPOS>ATOM
      1 H1         17.7105   19.1181   29.2646 H       1  lig         0.1313
      2 H2         15.2936   21.1680   32.1271 H       1  lig         0.1473
      3 H3         18.8836   21.2083   28.8119 H       1  lig         0.1394
      4 H4         16.4399   23.2944   31.6362 H       1  lig         0.1574
      5 H5         16.4467   17.9858   31.3048 H       1  lig         0.1170
      6 H6         15.0471   18.8341   31.8781 H       1  lig         0.0678
      7 H7         15.4373   18.1183   28.9285 H       1  lig         0.0912
      8 H8         13.9329   19.9700   29.4364 H       1  lig         0.4249
      9 H9         13.0339   18.6570   28.9450 H       1  lig         0.4256
     10 H10        13.1279   19.0373   30.5684 H       1  lig         0.4835
     11 H11        19.0925   23.1961   29.1949 H       1  lig         0.4236
     12 C1         17.4181   20.0267   29.7872 C.ar    1  lig        -0.1098
     13 C2         16.0877   21.1880   31.3821 C.ar    1  lig        -0.0948
     14 C3         18.0776   21.1989   29.5388 C.ar    1  lig        -0.2079
     15 C4         16.7202   22.3860   31.1100 C.ar    1  lig        -0.1468
     16 C5         16.4145   20.0178   30.7067 C.ar    1  lig        -0.1510
     17 C6         17.7280   22.3723   30.1530 C.ar    1  lig         0.1263
     18 C7         14.4733   16.7113   30.1743 C.2     1  lig         0.9365
     19 C8         15.6933   18.7174   31.0059 C.3     1  lig        -0.0459
     20 C9         14.8662   18.1363   29.8586 C.3     1  lig        -0.0743
     21 N1         13.6941   18.9919   29.6778 N.4     1  lig        -0.8330
     22 O1         14.3130   15.9939   29.1893 O.co2   1  lig        -0.7110
     23 O2         14.2885   16.2838   31.3498 O.co2   1  lig        -0.8016
     24 O3         18.3990   23.4202   29.8827 O.3     1  lig        -0.4958
@<TRIPOS>BOND
     1    20    21    1
     2     8    21    1
     3     9    21    1
     4    10    21    1
     5    18    20    1
     6    19    20    1
     7     7    20    1
     8    18    23    1
     9    18    22    1
    10    16    19    1
    11     5    19    1
    12     6    19    1
    13    12    16   ar
    14    13    16   ar
    15    12    14   ar
    16     1    12    1
    17    13    15   ar
    18     2    13    1
    19    14    17   ar
    20     3    14    1
    21    15    17   ar
    22     4    15    1
    23    17    24    1
    24    11    24    1
@<TRIPOS>SUBSTRUCTURE
     1 lig         1 TEMP              0 ****  ****    0 ROOT


########## Name:		ligand
########## HA_RMSDs:		12.4215
########## HA_RMSDh:		12.3356
########## HA_RMSDm:		8.4822
########## Cluster Size:	1
##########    Grid Score:          -12.619585
##########      Grid_vdw:          -10.878372
##########       Grid_es:           -1.741213
##########    Int_energy:            2.015259

@<TRIPOS>MOLECULE
ligand
 24 24 1 0 0
SMALL
No Charge or Current Charge


@<TRIPOS>ATOM
      1 H1         15.7408   14.1506   28.0119 H       1  lig         0.1313
      2 H2         17.7698   17.6241   29.4455 H       1  lig         0.1473
      3 H3         15.2588   15.3341   25.9340 H       1  lig         0.1394
      4 H4         17.2407   18.8430   27.3692 H       1  lig         0.1574
      5 H5         16.9911   14.0154   29.9513 H       1  lig         0.1170
      6 H6         18.1300   15.2337   30.4268 H       1  lig         0.0678
      7 H7         16.3334   16.4844   31.6427 H       1  lig         0.0912
      8 H8         17.6125   14.7250   32.7464 H       1  lig         0.4249
      9 H9         16.0553   14.7182   33.3367 H       1  lig         0.4256
     10 H10        16.5238   13.5692   32.2190 H       1  lig         0.4835
     11 H11        16.1124   17.0467   24.6721 H       1  lig         0.4236
     12 C1         16.0703   15.1802   27.8867 C.ar    1  lig        -0.1098
     13 C2         17.2016   17.1248   28.6622 C.ar    1  lig        -0.0948
     14 C3         15.8057   15.8443   26.7207 C.ar    1  lig        -0.2079
     15 C4         16.9051   17.8184   27.5045 C.ar    1  lig        -0.1468
     16 C5         16.7649   15.8209   28.8664 C.ar    1  lig        -0.1510
     17 C6         16.1780   17.1482   26.5278 C.ar    1  lig         0.1263
     18 C7         14.7506   15.2357   31.0131 C.2     1  lig         0.9365
     19 C8         17.0836   15.0844   30.1536 C.3     1  lig        -0.0459
     20 C9         16.2086   15.4385   31.3565 C.3     1  lig        -0.0743
     21 N1         16.6232   14.5897   32.4729 N.4     1  lig        -0.8330
     22 O1         14.3315   14.0972   31.2100 O.co2   1  lig        -0.7110
     23 O2         14.0157   16.1445   30.5305 O.co2   1  lig        -0.8016
     24 O3         15.9107   17.6948   25.4093 O.3     1  lig        -0.4958
@<TRIPOS>BOND
     1    20    21    1
     2     8    21    1
     3     9    21    1
     4    10    21    1
     5    18    20    1
     6    19    20    1
     7     7    20    1
     8    18    23    1
     9    18    22    1
    10    16    19    1
    11     5    19    1
    12     6    19    1
    13    12    16   ar
    14    13    16   ar
    15    12    14   ar
    16     1    12    1
    17    13    15   ar
    18     2    13    1
    19    14    17   ar
    20     3    14    1
    21    15    17   ar
    22     4    15    1
    23    17    24    1
    24    11    24    1
@<TRIPOS>SUBSTRUCTURE
     1 lig         1 TEMP              0 ****  ****    0 ROOT


########## Name:		ligand
########## HA_RMSDs:		12.6870
########## HA_RMSDh:		12.6286
########## HA_RMSDm:		10.2714
########## Cluster Size:	1
##########    Grid Score:          -12.561964
##########      Grid_vdw:          -10.422379
##########       Grid_es:           -2.139585
##########    Int_energy:            1.267086

@<TRIPOS>MOLECULE
ligand
 24 24 1 0 0
SMALL
No Charge or Current Charge


@<TRIPOS>ATOM
      1 H1         13.5647    8.1933   25.2043 H       1  lig         0.1313
      2 H2         16.8877    6.7107   22.9690 H       1  lig         0.1473
      3 H3         12.5232    5.9931   25.0466 H       1  lig         0.1394
      4 H4         15.8169    4.5000   22.7612 H       1  lig         0.1574
      5 H5         15.3775    9.5359   24.9212 H       1  lig         0.1170
      6 H6         16.9428    8.8577   24.6095 H       1  lig         0.0678
      7 H7         16.0043    9.1018   22.0159 H       1  lig         0.0912
      8 H8         18.1314    9.8483   22.9476 H       1  lig         0.4249
      9 H9         17.4532   11.0927   22.0730 H       1  lig         0.4256
     10 H10        17.3692   11.1089   23.7408 H       1  lig         0.4835
     11 H11        12.4878    4.1552   23.8014 H       1  lig         0.4236
     12 C1         14.0665    7.3948   24.6612 C.ar    1  lig        -0.1098
     13 C2         15.9105    6.5452   23.4200 C.ar    1  lig        -0.0948
     14 C3         13.4870    6.1589   24.5756 C.ar    1  lig        -0.2079
     15 C4         15.3160    5.3043   23.2930 C.ar    1  lig        -0.1468
     16 C5         15.2796    7.5952   24.0773 C.ar    1  lig        -0.1510
     17 C6         14.0687    5.1314   23.8814 C.ar    1  lig         0.1263
     18 C7         14.8612   10.7049   22.7803 C.2     1  lig         0.9365
     19 C8         15.9409    8.9560   24.1873 C.3     1  lig        -0.0459
     20 C9         16.0338    9.7572   22.8883 C.3     1  lig        -0.0743
     21 N1         17.3082   10.4743   22.8986 N.4     1  lig        -0.8330
     22 O1         15.1384   11.8867   22.9731 O.co2   1  lig        -0.7110
     23 O2         13.6785   10.3257   22.5436 O.co2   1  lig        -0.8016
     24 O3         13.4767    4.0042   23.8597 O.3     1  lig        -0.4958
@<TRIPOS>BOND
     1    20    21    1
     2     8    21    1
     3     9    21    1
     4    10    21    1
     5    18    20    1
     6    19    20    1
     7     7    20    1
     8    18    23    1
     9    18    22    1
    10    16    19    1
    11     5    19    1
    12     6    19    1
    13    12    16   ar
    14    13    16   ar
    15    12    14   ar
    16     1    12    1
    17    13    15   ar
    18     2    13    1
    19    14    17   ar
    20     3    14    1
    21    15    17   ar
    22     4    15    1
    23    17    24    1
    24    11    24    1
@<TRIPOS>SUBSTRUCTURE
     1 lig         1 TEMP              0 ****  ****    0 ROOT


########## Name:		ligand
########## HA_RMSDs:		12.7792
########## HA_RMSDh:		12.6847
########## HA_RMSDm:		9.0734
########## Cluster Size:	1
##########    Grid Score:          -12.215269
##########      Grid_vdw:          -10.260333
##########       Grid_es:           -1.954936
##########    Int_energy:            1.745130

@<TRIPOS>MOLECULE
ligand
 24 24 1 0 0
SMALL
No Charge or Current Charge


@<TRIPOS>ATOM
      1 H1         17.8695   17.5423   27.5162 H       1  lig         0.1313
      2 H2         16.2656   18.5487   31.3439 H       1  lig         0.1473
      3 H3         15.5994   17.4563   26.6277 H       1  lig         0.1394
      4 H4         13.9667   18.4119   30.4645 H       1  lig         0.1574
      5 H5         19.2017   18.7337   29.3727 H       1  lig         0.1170
      6 H6         18.6215   18.6226   31.0032 H       1  lig         0.0678
      7 H7         19.2758   16.1628   29.3020 H       1  lig         0.0912
      8 H8         17.6774   15.8433   31.1167 H       1  lig         0.4249
      9 H9         19.1215   15.1241   31.5300 H       1  lig         0.4256
     10 H10        18.7106   16.6010   32.1927 H       1  lig         0.4835
     11 H11        12.8027   17.8898   28.6543 H       1  lig         0.4236
     12 C1         17.0234   17.7293   28.1745 C.ar    1  lig        -0.1098
     13 C2         16.1077   18.2955   30.2967 C.ar    1  lig        -0.0948
     14 C3         15.7499   17.6866   27.6777 C.ar    1  lig        -0.2079
     15 C4         14.8152   18.2157   29.8147 C.ar    1  lig        -0.1468
     16 C5         17.2076   18.0281   29.4897 C.ar    1  lig        -0.1510
     17 C6         14.6535   17.8897   28.4733 C.ar    1  lig         0.1263
     18 C7         20.8010   16.9938   30.5039 C.2     1  lig         0.9365
     19 C8         18.6176   18.1010   30.0441 C.3     1  lig        -0.0459
     20 C9         19.3360   16.7618   30.2127 C.3     1  lig        -0.0743
     21 N1         18.6777   16.0379   31.2995 N.4     1  lig        -0.8330
     22 O1         21.2572   16.3067   31.4151 O.co2   1  lig        -0.7110
     23 O2         21.5067   17.8454   29.8911 O.co2   1  lig        -0.8016
     24 O3         13.5000   17.8500   27.9356 O.3     1  lig        -0.4958
@<TRIPOS>BOND
     1    20    21    1
     2     8    21    1
     3     9    21    1
     4    10    21    1
     5    18    20    1
     6    19    20    1
     7     7    20    1
     8    18    23    1
     9    18    22    1
    10    16    19    1
    11     5    19    1
    12     6    19    1
    13    12    16   ar
    14    13    16   ar
    15    12    14   ar
    16     1    12    1
    17    13    15   ar
    18     2    13    1
    19    14    17   ar
    20     3    14    1
    21    15    17   ar
    22     4    15    1
    23    17    24    1
    24    11    24    1
@<TRIPOS>SUBSTRUCTURE
     1 lig         1 TEMP              0 ****  ****    0 ROOT


########## Name:		ligand
########## HA_RMSDs:		13.9533
########## HA_RMSDh:		13.9456
########## HA_RMSDm:		11.9306
########## Cluster Size:	1
##########    Grid Score:          -12.136931
##########      Grid_vdw:          -12.901418
##########       Grid_es:            0.764486
##########    Int_energy:            2.780879

@<TRIPOS>MOLECULE
ligand
 24 24 1 0 0
SMALL
No Charge or Current Charge


@<TRIPOS>ATOM
      1 H1         27.0817    6.0592   17.3967 H       1  lig         0.1313
      2 H2         24.2139    6.6469   14.2875 H       1  lig         0.1473
      3 H3         27.8970    8.3278   17.0241 H       1  lig         0.1394
      4 H4         25.0679    8.9214   13.8707 H       1  lig         0.1574
      5 H5         24.0944    4.7415   15.6437 H       1  lig         0.1170
      6 H6         25.6912    4.0729   15.5416 H       1  lig         0.0678
      7 H7         25.9656    4.4756   18.0559 H       1  lig         0.0912
      8 H8         25.3022    2.3349   17.0928 H       1  lig         0.4249
      9 H9         24.4894    2.5615   18.5286 H       1  lig         0.4256
     10 H10        23.6982    2.8107   17.0792 H       1  lig         0.4835
     11 H11        26.6867   10.3288   14.4512 H       1  lig         0.4236
     12 C1         26.6353    6.6733   16.6171 C.ar    1  lig        -0.1098
     13 C2         25.0413    7.0255   14.8857 C.ar    1  lig        -0.0948
     14 C3         27.0873    7.9474   16.4095 C.ar    1  lig        -0.2079
     15 C4         25.5166    8.2995   14.6405 C.ar    1  lig        -0.1468
     16 C5         25.6130    6.2041   15.8505 C.ar    1  lig        -0.1510
     17 C6         26.5737    8.7477   15.4237 C.ar    1  lig         0.1263
     18 C7         24.0038    5.2217   18.2914 C.2     1  lig         0.9365
     19 C8         25.0894    4.8006   16.0895 C.3     1  lig        -0.0459
     20 C9         25.0039    4.3628   17.5520 C.3     1  lig        -0.0743
     21 N1         24.6220    2.9512   17.5718 N.4     1  lig        -0.8330
     22 O1         22.8589    4.7749   18.3089 O.co2   1  lig        -0.7110
     23 O2         24.2974    6.3292   18.8262 O.co2   1  lig        -0.8016
     24 O3         27.0347    9.9284   15.3013 O.3     1  lig        -0.4958
@<TRIPOS>BOND
     1    20    21    1
     2     8    21    1
     3     9    21    1
     4    10    21    1
     5    18    20    1
     6    19    20    1
     7     7    20    1
     8    18    23    1
     9    18    22    1
    10    16    19    1
    11     5    19    1
    12     6    19    1
    13    12    16   ar
    14    13    16   ar
    15    12    14   ar
    16     1    12    1
    17    13    15   ar
    18     2    13    1
    19    14    17   ar
    20     3    14    1
    21    15    17   ar
    22     4    15    1
    23    17    24    1
    24    11    24    1
@<TRIPOS>SUBSTRUCTURE
     1 lig         1 TEMP              0 ****  ****    0 ROOT


########## Name:		ligand
########## HA_RMSDs:		10.8983
########## HA_RMSDh:		10.8415
########## HA_RMSDm:		7.6113
########## Cluster Size:	1
##########    Grid Score:          -12.056289
##########      Grid_vdw:          -10.293221
##########       Grid_es:           -1.763068
##########    Int_energy:            1.786894

@<TRIPOS>MOLECULE
ligand
 24 24 1 0 0
SMALL
No Charge or Current Charge


@<TRIPOS>ATOM
      1 H1         16.1254   13.2713   24.7639 H       1  lig         0.1313
      2 H2         14.7939   14.4112   28.6581 H       1  lig         0.1473
      3 H3         16.5945   15.6152   24.2776 H       1  lig         0.1394
      4 H4         15.2165   16.7870   28.1543 H       1  lig         0.1574
      5 H5         14.5489   12.2093   27.9695 H       1  lig         0.1170
      6 H6         14.4845   11.8040   26.2846 H       1  lig         0.0678
      7 H7         17.2684   11.8576   26.8688 H       1  lig         0.0912
      8 H8         16.0426   10.3562   25.3878 H       1  lig         0.4249
      9 H9         16.9249    9.4511   26.4721 H       1  lig         0.4256
     10 H10        15.2817    9.6460   26.6978 H       1  lig         0.4835
     11 H11        16.5329   17.5579   24.8867 H       1  lig         0.4236
     12 C1         15.9162   14.0317   25.5136 C.ar    1  lig        -0.1098
     13 C2         15.1852   14.6893   27.6806 C.ar    1  lig        -0.0948
     14 C3         16.1830   15.3461   25.2453 C.ar    1  lig        -0.2079
     15 C4         15.4133   16.0241   27.4059 C.ar    1  lig        -0.1468
     16 C5         15.4093   13.6981   26.7321 C.ar    1  lig        -0.1510
     17 C6         15.9125   16.3402   26.1478 C.ar    1  lig         0.1263
     18 C7         16.5643   11.0052   28.6684 C.2     1  lig         0.9365
     19 C8         15.1325   12.2403   27.0471 C.3     1  lig        -0.0459
     20 C9         16.3646   11.3496   27.2103 C.3     1  lig        -0.0743
     21 N1         16.1584   10.1523   26.3962 N.4     1  lig        -0.8330
     22 O1         17.6963   11.2219   29.0955 O.co2   1  lig        -0.7110
     23 O2         15.6601   10.5035   29.3960 O.co2   1  lig        -0.8016
     24 O3         16.2033   17.5392   25.8328 O.3     1  lig        -0.4958
@<TRIPOS>BOND
     1    20    21    1
     2     8    21    1
     3     9    21    1
     4    10    21    1
     5    18    20    1
     6    19    20    1
     7     7    20    1
     8    18    23    1
     9    18    22    1
    10    16    19    1
    11     5    19    1
    12     6    19    1
    13    12    16   ar
    14    13    16   ar
    15    12    14   ar
    16     1    12    1
    17    13    15   ar
    18     2    13    1
    19    14    17   ar
    20     3    14    1
    21    15    17   ar
    22     4    15    1
    23    17    24    1
    24    11    24    1
@<TRIPOS>SUBSTRUCTURE
     1 lig         1 TEMP              0 ****  ****    0 ROOT


########## Name:		ligand
########## HA_RMSDs:		12.8707
########## HA_RMSDh:		12.8255
########## HA_RMSDm:		10.7673
########## Cluster Size:	1
##########    Grid Score:          -11.819162
##########      Grid_vdw:           -9.873084
##########       Grid_es:           -1.946079
##########    Int_energy:            2.697726

@<TRIPOS>MOLECULE
ligand
 24 24 1 0 0
SMALL
No Charge or Current Charge


@<TRIPOS>ATOM
      1 H1         25.8630    8.7344   25.1257 H       1  lig         0.1313
      2 H2         26.3911   12.4094   23.0156 H       1  lig         0.1473
      3 H3         26.8366    9.7735   27.1062 H       1  lig         0.1394
      4 H4         27.4238   13.4491   24.9978 H       1  lig         0.1574
      5 H5         26.0126   10.2333   21.8411 H       1  lig         0.1170
      6 H6         25.6323    8.7858   22.7172 H       1  lig         0.0678
      7 H7         23.8017   10.7958   21.6617 H       1  lig         0.0912
      8 H8         23.9251   11.6699   23.9357 H       1  lig         0.4249
      9 H9         22.4409   10.9492   23.7090 H       1  lig         0.4256
     10 H10        23.6309   10.1470   24.5629 H       1  lig         0.4835
     11 H11        27.4757   11.5054   28.0145 H       1  lig         0.4236
     12 C1         26.2060    9.7662   25.0821 C.ar    1  lig        -0.1098
     13 C2         26.5039   11.8259   23.9280 C.ar    1  lig        -0.0948
     14 C3         26.7477   10.3527   26.1926 C.ar    1  lig        -0.2079
     15 C4         27.0892   12.4159   25.0320 C.ar    1  lig        -0.1468
     16 C5         26.0876   10.4996   23.9415 C.ar    1  lig        -0.1510
     17 C6         27.2162   11.6397   26.1779 C.ar    1  lig         0.1263
     18 C7         23.2542    8.8328   22.2163 C.2     1  lig         0.9365
     19 C8         25.4663    9.8649   22.7118 C.3     1  lig        -0.0459
     20 C9         23.9741   10.1293   22.5088 C.3     1  lig        -0.0743
     21 N1         23.4663   10.7664   23.7233 N.4     1  lig        -0.8330
     22 O1         22.3279    8.5770   22.9825 O.co2   1  lig        -0.7110
     23 O2         23.5860    8.0470   21.2828 O.co2   1  lig        -0.8016
     24 O3         27.6927   12.1226   27.2555 O.3     1  lig        -0.4958
@<TRIPOS>BOND
     1    20    21    1
     2     8    21    1
     3     9    21    1
     4    10    21    1
     5    18    20    1
     6    19    20    1
     7     7    20    1
     8    18    23    1
     9    18    22    1
    10    16    19    1
    11     5    19    1
    12     6    19    1
    13    12    16   ar
    14    13    16   ar
    15    12    14   ar
    16     1    12    1
    17    13    15   ar
    18     2    13    1
    19    14    17   ar
    20     3    14    1
    21    15    17   ar
    22     4    15    1
    23    17    24    1
    24    11    24    1
@<TRIPOS>SUBSTRUCTURE
     1 lig         1 TEMP              0 ****  ****    0 ROOT


########## Name:		ligand
########## HA_RMSDs:		15.9079
########## HA_RMSDh:		15.8612
########## HA_RMSDm:		13.1817
########## Cluster Size:	1
##########    Grid Score:          -11.448626
##########      Grid_vdw:          -12.227295
##########       Grid_es:            0.778670
##########    Int_energy:            4.480059

@<TRIPOS>MOLECULE
ligand
 24 24 1 0 0
SMALL
No Charge or Current Charge


@<TRIPOS>ATOM
      1 H1         24.5581    2.0406   14.1696 H       1  lig         0.1313
      2 H2         23.0826    5.6279   12.3832 H       1  lig         0.1473
      3 H3         22.3302    1.0674   13.9695 H       1  lig         0.1394
      4 H4         20.8170    4.6691   12.2262 H       1  lig         0.1574
      5 H5         26.0332    3.8274   12.9134 H       1  lig         0.1170
      6 H6         25.3926    5.4376   12.8476 H       1  lig         0.0678
      7 H7         26.6525    5.5050   14.8372 H       1  lig         0.0912
      8 H8         27.1398    3.1150   14.8149 H       1  lig         0.4249
      9 H9         26.6845    3.5637   16.3527 H       1  lig         0.4256
     10 H10        25.5972    2.7708   15.3637 H       1  lig         0.4835
     11 H11        19.6698    2.8216   12.5579 H       1  lig         0.4236
     12 C1         23.7463    2.6296   13.7472 C.ar    1  lig        -0.1098
     13 C2         22.9038    4.6161   12.7440 C.ar    1  lig        -0.0948
     14 C3         22.4975    2.0845   13.6293 C.ar    1  lig        -0.2079
     15 C4         21.6292    4.0897   12.6569 C.ar    1  lig        -0.1468
     16 C5         23.9535    3.9019   13.3102 C.ar    1  lig        -0.1510
     17 C6         21.4398    2.7959   13.1280 C.ar    1  lig         0.1263
     18 C7         24.7275    5.3232   15.6869 C.2     1  lig         0.9365
     19 C8         25.3408    4.5064   13.4152 C.3     1  lig        -0.0459
     20 C9         25.8459    4.7695   14.8342 C.3     1  lig        -0.0743
     21 N1         26.3555    3.5062   15.3660 N.4     1  lig        -0.8330
     22 O1         24.0785    4.4746   16.2946 O.co2   1  lig        -0.7110
     23 O2         24.4477    6.5544   15.7554 O.co2   1  lig        -0.8016
     24 O3         20.3103    2.2156   13.0341 O.3     1  lig        -0.4958
@<TRIPOS>BOND
     1    20    21    1
     2     8    21    1
     3     9    21    1
     4    10    21    1
     5    18    20    1
     6    19    20    1
     7     7    20    1
     8    18    23    1
     9    18    22    1
    10    16    19    1
    11     5    19    1
    12     6    19    1
    13    12    16   ar
    14    13    16   ar
    15    12    14   ar
    16     1    12    1
    17    13    15   ar
    18     2    13    1
    19    14    17   ar
    20     3    14    1
    21    15    17   ar
    22     4    15    1
    23    17    24    1
    24    11    24    1
@<TRIPOS>SUBSTRUCTURE
     1 lig         1 TEMP              0 ****  ****    0 ROOT


########## Name:		ligand
########## HA_RMSDs:		12.1613
########## HA_RMSDh:		12.1030
########## HA_RMSDm:		8.3861
########## Cluster Size:	1
##########    Grid Score:          -11.415370
##########      Grid_vdw:          -10.057977
##########       Grid_es:           -1.357393
##########    Int_energy:            1.565877

@<TRIPOS>MOLECULE
ligand
 24 24 1 0 0
SMALL
No Charge or Current Charge


@<TRIPOS>ATOM
      1 H1         18.3034   17.9831   29.3434 H       1  lig         0.1313
      2 H2         18.1324   14.1187   27.5340 H       1  lig         0.1473
      3 H3         16.8114   18.8229   27.6059 H       1  lig         0.1394
      4 H4         16.6667   14.9733   25.7457 H       1  lig         0.1574
      5 H5         19.5710   14.4773   29.3157 H       1  lig         0.1170
      6 H6         20.1539   16.0699   29.6777 H       1  lig         0.0678
      7 H7         18.1573   16.3251   31.3061 H       1  lig         0.0912
      8 H8         20.4458   15.8168   31.9805 H       1  lig         0.4249
      9 H9         19.3911   14.9611   32.9444 H       1  lig         0.4256
     10 H10        20.1921   14.1869   31.7002 H       1  lig         0.4835
     11 H11        15.7556   16.8321   24.9540 H       1  lig         0.4236
     12 C1         17.9570   17.3142   28.5581 C.ar    1  lig        -0.1098
     13 C2         17.8417   15.1681   27.5366 C.ar    1  lig        -0.0948
     14 C3         17.1164   17.7814   27.5855 C.ar    1  lig        -0.2079
     15 C4         17.0245   15.6388   26.5266 C.ar    1  lig        -0.1468
     16 C5         18.3289   16.0050   28.5339 C.ar    1  lig        -0.1510
     17 C6         16.6753   16.9836   26.5632 C.ar    1  lig         0.1263
     18 C7         17.5588   14.3161   31.0482 C.2     1  lig         0.9365
     19 C8         19.2419   15.4724   29.6218 C.3     1  lig        -0.0459
     20 C9         18.6289   15.3832   31.0198 C.3     1  lig        -0.0743
     21 N1         19.7091   15.0895   31.9608 N.4     1  lig        -0.8330
     22 O1         17.9715   13.1830   31.2855 O.co2   1  lig        -0.7110
     23 O2         16.3376   14.5478   30.8164 O.co2   1  lig        -0.8016
     24 O3         15.8815   17.4854   25.7033 O.3     1  lig        -0.4958
@<TRIPOS>BOND
     1    20    21    1
     2     8    21    1
     3     9    21    1
     4    10    21    1
     5    18    20    1
     6    19    20    1
     7     7    20    1
     8    18    23    1
     9    18    22    1
    10    16    19    1
    11     5    19    1
    12     6    19    1
    13    12    16   ar
    14    13    16   ar
    15    12    14   ar
    16     1    12    1
    17    13    15   ar
    18     2    13    1
    19    14    17   ar
    20     3    14    1
    21    15    17   ar
    22     4    15    1
    23    17    24    1
    24    11    24    1
@<TRIPOS>SUBSTRUCTURE
     1 lig         1 TEMP              0 ****  ****    0 ROOT


########## Name:		ligand
########## HA_RMSDs:		12.0039
########## HA_RMSDh:		11.9705
########## HA_RMSDm:		9.7976
########## Cluster Size:	1
##########    Grid Score:          -11.077262
##########      Grid_vdw:           -9.311691
##########       Grid_es:           -1.765571
##########    Int_energy:            3.498338

@<TRIPOS>MOLECULE
ligand
 24 24 1 0 0
SMALL
No Charge or Current Charge


@<TRIPOS>ATOM
      1 H1         23.3655    7.9680   24.9008 H       1  lig         0.1313
      2 H2         23.3333   11.7374   22.8940 H       1  lig         0.1473
      3 H3         25.0605    8.8351   26.4258 H       1  lig         0.1394
      4 H4         25.0838   12.6022   24.3988 H       1  lig         0.1574
      5 H5         22.4315    9.6255   21.8465 H       1  lig         0.1170
      6 H6         22.2523    8.1753   22.7804 H       1  lig         0.0678
      7 H7         20.2677   10.1439   22.3432 H       1  lig         0.0912
      8 H8         21.3296   11.4566   24.1035 H       1  lig         0.4249
      9 H9         19.8658   10.8868   24.6569 H       1  lig         0.4256
     10 H10        21.2816   10.1464   25.1430 H       1  lig         0.4835
     11 H11        26.5803   10.3339   26.6785 H       1  lig         0.4236
     12 C1         23.7371    8.9831   24.7759 C.ar    1  lig        -0.1098
     13 C2         23.7313   11.0938   23.6771 C.ar    1  lig        -0.0948
     14 C3         24.6839    9.4733   25.6327 C.ar    1  lig        -0.2079
     15 C4         24.7164   11.5859   24.5118 C.ar    1  lig        -0.1468
     16 C5         23.2608    9.7905   23.7890 C.ar    1  lig        -0.1510
     17 C6         25.1998   10.7351   25.4988 C.ar    1  lig         0.1263
     18 C7         19.9484    8.4216   23.5233 C.2     1  lig         0.9365
     19 C8         22.1936    9.2633   22.8488 C.3     1  lig        -0.0459
     20 C9         20.7553    9.6552   23.1887 C.3     1  lig        -0.0743
     21 N1         20.8030   10.5900   24.3123 N.4     1  lig        -0.8330
     22 O1         18.8564    8.3563   22.9631 O.co2   1  lig        -0.7110
     23 O2         20.3365    7.5348   24.3368 O.co2   1  lig        -0.8016
     24 O3         26.0670   11.1272   26.3447 O.3     1  lig        -0.4958
@<TRIPOS>BOND
     1    20    21    1
     2     8    21    1
     3     9    21    1
     4    10    21    1
     5    18    20    1
     6    19    20    1
     7     7    20    1
     8    18    23    1
     9    18    22    1
    10    16    19    1
    11     5    19    1
    12     6    19    1
    13    12    16   ar
    14    13    16   ar
    15    12    14   ar
    16     1    12    1
    17    13    15   ar
    18     2    13    1
    19    14    17   ar
    20     3    14    1
    21    15    17   ar
    22     4    15    1
    23    17    24    1
    24    11    24    1
@<TRIPOS>SUBSTRUCTURE
     1 lig         1 TEMP              0 ****  ****    0 ROOT


########## Name:		ligand
########## HA_RMSDs:		16.7109
########## HA_RMSDh:		16.6750
########## HA_RMSDm:		13.5232
########## Cluster Size:	1
##########    Grid Score:          -10.947115
##########      Grid_vdw:           -8.909282
##########       Grid_es:           -2.037834
##########    Int_energy:            2.027443

@<TRIPOS>MOLECULE
ligand
 24 24 1 0 0
SMALL
No Charge or Current Charge


@<TRIPOS>ATOM
      1 H1         29.1085    6.8182   15.8297 H       1  lig         0.1313
      2 H2         27.9713    4.3726   12.5187 H       1  lig         0.1473
      3 H3         31.4125    6.0691   15.5453 H       1  lig         0.1394
      4 H4         30.2882    3.5716   12.2592 H       1  lig         0.1574
      5 H5         26.3373    5.2175   14.5158 H       1  lig         0.1170
      6 H6         26.8561    6.6827   15.2848 H       1  lig         0.0678
      7 H7         26.3503    6.3209   12.2893 H       1  lig         0.0912
      8 H8         28.2585    7.7726   12.7378 H       1  lig         0.4249
      9 H9         26.9726    8.7034   12.2342 H       1  lig         0.4256
     10 H10        27.3664    8.6404   13.8560 H       1  lig         0.4835
     11 H11        32.7199    4.7882   14.6186 H       1  lig         0.4236
     12 C1         29.3520    6.1024   15.0471 C.ar    1  lig        -0.1098
     13 C2         28.7424    4.7375   13.1956 C.ar    1  lig        -0.0948
     14 C3         30.6439    5.6846   14.8824 C.ar    1  lig        -0.2079
     15 C4         30.0369    4.2781   13.0456 C.ar    1  lig        -0.1468
     16 C5         28.3932    5.6249   14.2071 C.ar    1  lig        -0.1510
     17 C6         30.9932    4.7660   13.9283 C.ar    1  lig         0.1263
     18 C7         24.9909    7.3672   13.5213 C.2     1  lig         0.9365
     19 C8         26.9619    6.1007   14.3672 C.3     1  lig        -0.0459
     20 C9         26.3980    6.9161   13.2030 C.3     1  lig        -0.0743
     21 N1         27.2919    8.0521   12.9818 N.4     1  lig        -0.8330
     22 O1         24.5152    8.1667   12.7181 O.co2   1  lig        -0.7110
     23 O2         24.3524    6.9879   14.5447 O.co2   1  lig        -0.8016
     24 O3         32.2191    4.4376   13.8246 O.3     1  lig        -0.4958
@<TRIPOS>BOND
     1    20    21    1
     2     8    21    1
     3     9    21    1
     4    10    21    1
     5    18    20    1
     6    19    20    1
     7     7    20    1
     8    18    23    1
     9    18    22    1
    10    16    19    1
    11     5    19    1
    12     6    19    1
    13    12    16   ar
    14    13    16   ar
    15    12    14   ar
    16     1    12    1
    17    13    15   ar
    18     2    13    1
    19    14    17   ar
    20     3    14    1
    21    15    17   ar
    22     4    15    1
    23    17    24    1
    24    11    24    1
@<TRIPOS>SUBSTRUCTURE
     1 lig         1 TEMP              0 ****  ****    0 ROOT


########## Name:		ligand
########## HA_RMSDs:		15.0033
########## HA_RMSDh:		14.9499
########## HA_RMSDm:		12.7295
########## Cluster Size:	1
##########    Grid Score:          -10.878926
##########      Grid_vdw:           -9.814240
##########       Grid_es:           -1.064687
##########    Int_energy:            4.065654

@<TRIPOS>MOLECULE
ligand
 24 24 1 0 0
SMALL
No Charge or Current Charge


@<TRIPOS>ATOM
      1 H1          7.6944   10.3898   26.4615 H       1  lig         0.1313
      2 H2         11.1321    8.0438   25.5046 H       1  lig         0.1473
      3 H3          6.6511    8.4042   27.4204 H       1  lig         0.1394
      4 H4         10.0623    6.0225   26.4247 H       1  lig         0.1574
      5 H5          9.8130   11.4256   25.9222 H       1  lig         0.1170
      6 H6         11.2124   10.5166   25.4501 H       1  lig         0.0678
      7 H7         10.6577   10.5634   23.2095 H       1  lig         0.0912
      8 H8         10.4320   12.8641   23.9879 H       1  lig         0.4249
      9 H9          9.3470   12.5981   22.7527 H       1  lig         0.4256
     10 H10         8.8147   12.6134   24.3356 H       1  lig         0.4835
     11 H11         6.7036    6.3605   27.6654 H       1  lig         0.4236
     12 C1          8.2220    9.4382   26.4416 C.ar    1  lig        -0.1098
     13 C2         10.1295    8.1131   25.9239 C.ar    1  lig        -0.0948
     14 C3          7.6413    8.3246   26.9831 C.ar    1  lig        -0.2079
     15 C4          9.5362    6.9732   26.4320 C.ar    1  lig        -0.1468
     16 C5          9.4679    9.3355   25.9031 C.ar    1  lig        -0.1510
     17 C6          8.2561    7.1008   26.9582 C.ar    1  lig         0.1263
     18 C7          8.6143   10.0681   23.4096 C.2     1  lig         0.9365
     19 C8         10.1296   10.5704   25.3216 C.3     1  lig        -0.0459
     20 C9          9.8251   10.8579   23.8510 C.3     1  lig        -0.0743
     21 N1          9.6092   12.2979   23.7151 N.4     1  lig        -0.8330
     22 O1          8.8712    9.0583   22.7577 O.co2   1  lig        -0.7110
     23 O2          7.4251   10.4211   23.6545 O.co2   1  lig        -0.8016
     24 O3          7.6599    6.1130   27.4967 O.3     1  lig        -0.4958
@<TRIPOS>BOND
     1    20    21    1
     2     8    21    1
     3     9    21    1
     4    10    21    1
     5    18    20    1
     6    19    20    1
     7     7    20    1
     8    18    23    1
     9    18    22    1
    10    16    19    1
    11     5    19    1
    12     6    19    1
    13    12    16   ar
    14    13    16   ar
    15    12    14   ar
    16     1    12    1
    17    13    15   ar
    18     2    13    1
    19    14    17   ar
    20     3    14    1
    21    15    17   ar
    22     4    15    1
    23    17    24    1
    24    11    24    1
@<TRIPOS>SUBSTRUCTURE
     1 lig         1 TEMP              0 ****  ****    0 ROOT


########## Name:		ligand
########## HA_RMSDs:		11.2628
########## HA_RMSDh:		11.1888
########## HA_RMSDm:		8.6722
########## Cluster Size:	1
##########    Grid Score:          -10.145182
##########      Grid_vdw:           -8.930052
##########       Grid_es:           -1.215130
##########    Int_energy:            2.110657

@<TRIPOS>MOLECULE
ligand
 24 24 1 0 0
SMALL
No Charge or Current Charge


@<TRIPOS>ATOM
      1 H1         18.8301   12.6242   28.7996 H       1  lig         0.1313
      2 H2         19.1737   13.9127   24.7426 H       1  lig         0.1473
      3 H3         20.2782   10.7305   28.2829 H       1  lig         0.1394
      4 H4         20.5948   11.9725   24.2015 H       1  lig         0.1574
      5 H5         17.7365   14.4956   28.1732 H       1  lig         0.1170
      6 H6         18.5744   15.4918   27.0274 H       1  lig         0.0678
      7 H7         16.8541   14.2224   25.3032 H       1  lig         0.0912
      8 H8         17.2071   16.6164   25.6103 H       1  lig         0.4249
      9 H9         15.5711   16.3058   25.5861 H       1  lig         0.4256
     10 H10        16.3410   16.5851   27.0415 H       1  lig         0.4835
     11 H11        21.4498   10.1244   25.0588 H       1  lig         0.4236
     12 C1         19.2050   12.4904   27.7868 C.ar    1  lig        -0.1098
     13 C2         19.4161   13.1931   25.5231 C.ar    1  lig        -0.0948
     14 C3         20.0211   11.4321   27.4957 C.ar    1  lig        -0.2079
     15 C4         20.2086   12.1058   25.2084 C.ar    1  lig        -0.1468
     16 C5         18.8934   13.3731   26.7986 C.ar    1  lig        -0.1510
     17 C6         20.4960   11.2088   26.2305 C.ar    1  lig         0.1263
     18 C7         15.5916   13.9754   26.9783 C.2     1  lig         0.9365
     19 C8         18.0082   14.5628   27.1178 C.3     1  lig        -0.0459
     20 C9         16.7319   14.6847   26.2845 C.3     1  lig        -0.0743
     21 N1         16.4525   16.1089   26.1052 N.4     1  lig        -0.8330
     22 O1         14.4941   14.5103   26.8371 O.co2   1  lig        -0.7110
     23 O2         15.7423   12.9334   27.6785 O.co2   1  lig        -0.8016
     24 O3         21.2641   10.2112   26.0397 O.3     1  lig        -0.4958
@<TRIPOS>BOND
     1    20    21    1
     2     8    21    1
     3     9    21    1
     4    10    21    1
     5    18    20    1
     6    19    20    1
     7     7    20    1
     8    18    23    1
     9    18    22    1
    10    16    19    1
    11     5    19    1
    12     6    19    1
    13    12    16   ar
    14    13    16   ar
    15    12    14   ar
    16     1    12    1
    17    13    15   ar
    18     2    13    1
    19    14    17   ar
    20     3    14    1
    21    15    17   ar
    22     4    15    1
    23    17    24    1
    24    11    24    1
@<TRIPOS>SUBSTRUCTURE
     1 lig         1 TEMP              0 ****  ****    0 ROOT


########## Name:		ligand
########## HA_RMSDs:		17.5494
########## HA_RMSDh:		17.5161
########## HA_RMSDm:		15.1217
########## Cluster Size:	1
##########    Grid Score:          -10.068214
##########      Grid_vdw:           -8.749106
##########       Grid_es:           -1.319108
##########    Int_energy:            2.446638

@<TRIPOS>MOLECULE
ligand
 24 24 1 0 0
SMALL
No Charge or Current Charge


@<TRIPOS>ATOM
      1 H1         10.0196    4.6301   23.5321 H       1  lig         0.1313
      2 H2          6.0273    4.7771   22.0230 H       1  lig         0.1473
      3 H3          9.5358    2.4425   24.4969 H       1  lig         0.1394
      4 H4          5.5163    2.5905   23.0401 H       1  lig         0.1574
      5 H5          9.2711    6.5708   22.5702 H       1  lig         0.1170
      6 H6          8.5722    6.0921   21.0571 H       1  lig         0.0678
      7 H7          6.2776    6.8690   22.0117 H       1  lig         0.0912
      8 H8          7.6195    8.1026   20.3907 H       1  lig         0.4249
      9 H9          6.9264    9.1792   21.4557 H       1  lig         0.4256
     10 H10         8.5368    8.7692   21.6210 H       1  lig         0.4835
     11 H11         6.3619    1.0275   24.3732 H       1  lig         0.4236
     12 C1          9.0271    4.1976   23.4216 C.ar    1  lig        -0.1098
     13 C2          6.8002    4.2549   22.5849 C.ar    1  lig        -0.0948
     14 C3          8.7548    2.9690   23.9574 C.ar    1  lig        -0.2079
     15 C4          6.5022    3.0325   23.1560 C.ar    1  lig        -0.1468
     16 C5          8.0474    4.8495   22.7376 C.ar    1  lig        -0.1510
     17 C6          7.5139    2.3964   23.8658 C.ar    1  lig         0.1263
     18 C7          7.1834    7.7104   23.7242 C.2     1  lig         0.9365
     19 C8          8.3474    6.2020   22.1197 C.3     1  lig        -0.0459
     20 C9          7.2589    7.2635   22.2822 C.3     1  lig        -0.0743
     21 N1          7.5848    8.3747   21.3891 N.4     1  lig        -0.8330
     22 O1          7.5195    8.8768   23.9172 O.co2   1  lig        -0.7110
     23 O2          6.8361    6.9492   24.6722 O.co2   1  lig        -0.8016
     24 O3          7.3406    1.2426   24.3758 O.3     1  lig        -0.4958
@<TRIPOS>BOND
     1    20    21    1
     2     8    21    1
     3     9    21    1
     4    10    21    1
     5    18    20    1
     6    19    20    1
     7     7    20    1
     8    18    23    1
     9    18    22    1
    10    16    19    1
    11     5    19    1
    12     6    19    1
    13    12    16   ar
    14    13    16   ar
    15    12    14   ar
    16     1    12    1
    17    13    15   ar
    18     2    13    1
    19    14    17   ar
    20     3    14    1
    21    15    17   ar
    22     4    15    1
    23    17    24    1
    24    11    24    1
@<TRIPOS>SUBSTRUCTURE
     1 lig         1 TEMP              0 ****  ****    0 ROOT


########## Name:		ligand
########## HA_RMSDs:		12.4457
########## HA_RMSDh:		12.4250
########## HA_RMSDm:		10.5081
########## Cluster Size:	1
##########    Grid Score:           -9.290476
##########      Grid_vdw:           -8.411543
##########       Grid_es:           -0.878933
##########    Int_energy:            2.855837

@<TRIPOS>MOLECULE
ligand
 24 24 1 0 0
SMALL
No Charge or Current Charge


@<TRIPOS>ATOM
      1 H1         23.1879    6.8201   24.6965 H       1  lig         0.1313
      2 H2         22.8689   10.0277   21.8954 H       1  lig         0.1473
      3 H3         21.0328    7.4728   25.6346 H       1  lig         0.1394
      4 H4         20.7158   10.7244   22.8729 H       1  lig         0.1574
      5 H5         24.7043    6.9599   22.9728 H       1  lig         0.1170
      6 H6         24.4307    7.9357   21.5655 H       1  lig         0.0678
      7 H7         26.5200    8.2640   23.4270 H       1  lig         0.0912
      8 H8         24.9175    9.3497   24.9114 H       1  lig         0.4249
      9 H9         25.9896   10.4891   24.3404 H       1  lig         0.4256
     10 H10        24.4550   10.3935   23.6884 H       1  lig         0.4835
     11 H11        18.9266    9.3830   24.1636 H       1  lig         0.4236
     12 C1         22.6598    7.6809   24.2912 C.ar    1  lig        -0.1098
     13 C2         22.4576    9.4704   22.7357 C.ar    1  lig        -0.0948
     14 C3         21.4490    8.0459   24.8121 C.ar    1  lig        -0.2079
     15 C4         21.2530    9.8723   23.2803 C.ar    1  lig        -0.1468
     16 C5         23.1729    8.3967   23.2533 C.ar    1  lig        -0.1510
     17 C6         20.7602    9.1367   24.3517 C.ar    1  lig         0.1263
     18 C7         26.2213    9.5720   21.7959 C.2     1  lig         0.9365
     19 C8         24.5040    7.9848   22.6537 C.3     1  lig        -0.0459
     20 C9         25.7003    8.8619   23.0243 C.3     1  lig        -0.0743
     21 N1         25.2576    9.8082   24.0477 N.4     1  lig        -0.8330
     22 O1         26.8941    8.8694   21.0447 O.co2   1  lig        -0.7110
     23 O2         26.0181   10.7977   21.5611 O.co2   1  lig        -0.8016
     24 O3         19.6312    9.4049   24.8758 O.3     1  lig        -0.4958
@<TRIPOS>BOND
     1    20    21    1
     2     8    21    1
     3     9    21    1
     4    10    21    1
     5    18    20    1
     6    19    20    1
     7     7    20    1
     8    18    23    1
     9    18    22    1
    10    16    19    1
    11     5    19    1
    12     6    19    1
    13    12    16   ar
    14    13    16   ar
    15    12    14   ar
    16     1    12    1
    17    13    15   ar
    18     2    13    1
    19    14    17   ar
    20     3    14    1
    21    15    17   ar
    22     4    15    1
    23    17    24    1
    24    11    24    1
@<TRIPOS>SUBSTRUCTURE
     1 lig         1 TEMP              0 ****  ****    0 ROOT


########## Name:		ligand
########## HA_RMSDs:		13.0275
########## HA_RMSDh:		12.9776
########## HA_RMSDm:		11.1515
########## Cluster Size:	1
##########    Grid Score:           -7.605460
##########      Grid_vdw:           -7.700752
##########       Grid_es:            0.095292
##########    Int_energy:            1.919810

@<TRIPOS>MOLECULE
ligand
 24 24 1 0 0
SMALL
No Charge or Current Charge


@<TRIPOS>ATOM
      1 H1         14.9833    5.7092   24.7067 H       1  lig         0.1313
      2 H2         18.2620    7.7964   22.9372 H       1  lig         0.1473
      3 H3         13.4522    7.0380   23.3501 H       1  lig         0.1394
      4 H4         16.7177    9.1785   21.6024 H       1  lig         0.1574
      5 H5         17.0739    5.2101   25.4007 H       1  lig         0.1170
      6 H6         18.2301    5.1640   24.1090 H       1  lig         0.0678
      7 H7         19.2889    7.2899   24.9951 H       1  lig         0.0912
      8 H8         20.0708    5.0689   25.6321 H       1  lig         0.4249
      9 H9         20.2213    6.0940   26.9360 H       1  lig         0.4256
     10 H10        18.9550    5.0067   26.8774 H       1  lig         0.4835
     11 H11        14.5913    9.4706   21.1268 H       1  lig         0.4236
     12 C1         15.3765    6.4697   24.0350 C.ar    1  lig        -0.1098
     13 C2         17.1882    7.6412   23.0310 C.ar    1  lig        -0.0948
     14 C3         14.5204    7.2127   23.2696 C.ar    1  lig        -0.2079
     15 C4         16.3307    8.4249   22.2828 C.ar    1  lig        -0.1468
     16 C5         16.7158    6.6857   23.9233 C.ar    1  lig        -0.1510
     17 C6         14.9673    8.1980   22.4296 C.ar    1  lig         0.1263
     18 C7         17.9272    7.5047   26.5954 C.2     1  lig         0.9365
     19 C8         17.6741    5.8502   24.7507 C.3     1  lig        -0.0459
     20 C9         18.6690    6.6330   25.6082 C.3     1  lig        -0.0743
     21 N1         19.5311    5.6646   26.2847 N.4     1  lig        -0.8330
     22 O1         17.6327    6.9474   27.6504 O.co2   1  lig        -0.7110
     23 O2         17.5996    8.7027   26.3580 O.co2   1  lig        -0.8016
     24 O3         14.1112    8.8369   21.7367 O.3     1  lig        -0.4958
@<TRIPOS>BOND
     1    20    21    1
     2     8    21    1
     3     9    21    1
     4    10    21    1
     5    18    20    1
     6    19    20    1
     7     7    20    1
     8    18    23    1
     9    18    22    1
    10    16    19    1
    11     5    19    1
    12     6    19    1
    13    12    16   ar
    14    13    16   ar
    15    12    14   ar
    16     1    12    1
    17    13    15   ar
    18     2    13    1
    19    14    17   ar
    20     3    14    1
    21    15    17   ar
    22     4    15    1
    23    17    24    1
    24    11    24    1
@<TRIPOS>SUBSTRUCTURE
     1 lig         1 TEMP              0 ****  ****    0 ROOT


########## Name:		ligand
########## HA_RMSDs:		10.9875
########## HA_RMSDh:		10.9314
########## HA_RMSDm:		9.0277
########## Cluster Size:	1
##########    Grid Score:           -7.012074
##########      Grid_vdw:           -7.914274
##########       Grid_es:            0.902200
##########    Int_energy:            3.465830

@<TRIPOS>MOLECULE
ligand
 24 24 1 0 0
SMALL
No Charge or Current Charge


@<TRIPOS>ATOM
      1 H1         16.0162    9.9130   26.7250 H       1  lig         0.1313
      2 H2         18.6623   10.5201   23.4286 H       1  lig         0.1473
      3 H3         14.1824   10.7711   25.3645 H       1  lig         0.1394
      4 H4         16.8239   11.4370   22.0661 H       1  lig         0.1574
      5 H5         18.2016    8.8088   26.5981 H       1  lig         0.1170
      6 H6         19.3565    9.1855   25.3606 H       1  lig         0.0678
      7 H7         20.3595   10.4779   26.9670 H       1  lig         0.0912
      8 H8         18.9071    9.4775   28.6522 H       1  lig         0.4249
      9 H9         19.1031   11.0958   28.9933 H       1  lig         0.4256
     10 H10        17.6891   10.5632   28.2819 H       1  lig         0.4835
     11 H11        14.6469   11.7682   22.0595 H       1  lig         0.4236
     12 C1         16.2083   10.2488   25.7079 C.ar    1  lig        -0.1098
     13 C2         17.6630   10.5894   23.8557 C.ar    1  lig        -0.0948
     14 C3         15.1809   10.7257   24.9413 C.ar    1  lig        -0.2079
     15 C4         16.6405   11.1101   23.0860 C.ar    1  lig        -0.1468
     16 C5         17.4569   10.1846   25.1695 C.ar    1  lig        -0.1510
     17 C6         15.3793   11.1831   23.6655 C.ar    1  lig         0.1263
     18 C7         19.0410   12.0451   26.4509 C.2     1  lig         0.9365
     19 C8         18.5980    9.6350   26.0043 C.3     1  lig        -0.0459
     20 C9         19.2796   10.6346   26.9392 C.3     1  lig        -0.0743
     21 N1         18.7369   10.4292   28.2816 N.4     1  lig        -0.8330
     22 O1         18.1644   12.6560   27.0582 O.co2   1  lig        -0.7110
     23 O2         19.6614   12.5592   25.4764 O.co2   1  lig        -0.8016
     24 O3         14.3710   11.5974   23.0076 O.3     1  lig        -0.4958
@<TRIPOS>BOND
     1    20    21    1
     2     8    21    1
     3     9    21    1
     4    10    21    1
     5    18    20    1
     6    19    20    1
     7     7    20    1
     8    18    23    1
     9    18    22    1
    10    16    19    1
    11     5    19    1
    12     6    19    1
    13    12    16   ar
    14    13    16   ar
    15    12    14   ar
    16     1    12    1
    17    13    15   ar
    18     2    13    1
    19    14    17   ar
    20     3    14    1
    21    15    17   ar
    22     4    15    1
    23    17    24    1
    24    11    24    1
@<TRIPOS>SUBSTRUCTURE
     1 lig         1 TEMP              0 ****  ****    0 ROOT


########## Name:		ligand
########## HA_RMSDs:		13.9385
########## HA_RMSDh:		13.9266
########## HA_RMSDm:		11.4298
########## Cluster Size:	1
##########    Grid Score:           -6.922401
##########      Grid_vdw:           -6.293773
##########       Grid_es:           -0.628628
##########    Int_energy:            2.865850

@<TRIPOS>MOLECULE
ligand
 24 24 1 0 0
SMALL
No Charge or Current Charge


@<TRIPOS>ATOM
      1 H1         13.9851   17.1504   33.2934 H       1  lig         0.1313
      2 H2         14.7610   16.1223   29.2217 H       1  lig         0.1473
      3 H3         13.4950   19.4329   32.5859 H       1  lig         0.1394
      4 H4         14.3180   18.4396   28.5071 H       1  lig         0.1574
      5 H5         15.6004   14.7413   31.1932 H       1  lig         0.1170
      6 H6         14.9978   15.0478   32.7902 H       1  lig         0.0678
      7 H7         12.6220   14.4779   31.8205 H       1  lig         0.0912
      8 H8         13.9336   13.0748   33.3242 H       1  lig         0.4249
      9 H9         13.1896   12.1096   32.1892 H       1  lig         0.4256
     10 H10        14.8125   12.4720   32.0344 H       1  lig         0.4835
     11 H11        13.1856   20.7336   31.0303 H       1  lig         0.4236
     12 C1         14.0675   17.4206   32.2424 C.ar    1  lig        -0.1098
     13 C2         14.4886   16.8688   29.9662 C.ar    1  lig        -0.0948
     14 C3         13.7884   18.6984   31.8425 C.ar    1  lig        -0.2079
     15 C4         14.2478   18.1663   29.5564 C.ar    1  lig        -0.1468
     16 C5         14.4256   16.5006   31.3052 C.ar    1  lig        -0.1510
     17 C6         13.9031   19.0909   30.5353 C.ar    1  lig         0.1263
     18 C7         13.4777   13.7384   30.0367 C.2     1  lig         0.9365
     19 C8         14.7140   15.0752   31.7364 C.3     1  lig        -0.0459
     20 C9         13.5849   14.0698   31.5076 C.3     1  lig        -0.0743
     21 N1         13.8783   12.8820   32.3085 N.4     1  lig        -0.8330
     22 O1         14.1874   12.8047   29.6690 O.co2   1  lig        -0.7110
     23 O2         12.7467   14.3806   29.2293 O.co2   1  lig        -0.8016
     24 O3         13.6106   20.2936   30.2366 O.3     1  lig        -0.4958
@<TRIPOS>BOND
     1    20    21    1
     2     8    21    1
     3     9    21    1
     4    10    21    1
     5    18    20    1
     6    19    20    1
     7     7    20    1
     8    18    23    1
     9    18    22    1
    10    16    19    1
    11     5    19    1
    12     6    19    1
    13    12    16   ar
    14    13    16   ar
    15    12    14   ar
    16     1    12    1
    17    13    15   ar
    18     2    13    1
    19    14    17   ar
    20     3    14    1
    21    15    17   ar
    22     4    15    1
    23    17    24    1
    24    11    24    1
@<TRIPOS>SUBSTRUCTURE
     1 lig         1 TEMP              0 ****  ****    0 ROOT


########## Name:		ligand
########## HA_RMSDs:		14.7231
########## HA_RMSDh:		14.6803
########## HA_RMSDm:		12.2643
########## Cluster Size:	1
##########    Grid Score:           -6.642012
##########      Grid_vdw:           -5.126374
##########       Grid_es:           -1.515638
##########    Int_energy:            2.945076

@<TRIPOS>MOLECULE
ligand
 24 24 1 0 0
SMALL
No Charge or Current Charge


@<TRIPOS>ATOM
      1 H1         26.3092   16.7400   28.9540 H       1  lig         0.1313
      2 H2         24.6497   13.2230   30.7186 H       1  lig         0.1473
      3 H3         24.0552   17.6434   28.7218 H       1  lig         0.1394
      4 H4         22.3660   14.1080   30.4388 H       1  lig         0.1574
      5 H5         27.6923   15.2011   30.1524 H       1  lig         0.1170
      6 H6         27.0846   13.7625   30.9065 H       1  lig         0.0678
      7 H7         28.5502   13.1535   29.0210 H       1  lig         0.0912
      8 H8         28.1874   15.2008   27.7454 H       1  lig         0.4249
      9 H9         27.8682   13.8883   26.7712 H       1  lig         0.4256
     10 H10        26.6048   14.7556   27.4348 H       1  lig         0.4835
     11 H11        21.8019   16.7327   28.4314 H       1  lig         0.4236
     12 C1         25.4539   16.1504   29.2782 C.ar    1  lig        -0.1098
     13 C2         24.5075   14.2027   30.2650 C.ar    1  lig        -0.0948
     14 C3         24.1895   16.6567   29.1537 C.ar    1  lig        -0.2079
     15 C4         23.2232   14.6875   30.1073 C.ar    1  lig        -0.1468
     16 C5         25.6180   14.9166   29.8293 C.ar    1  lig        -0.1510
     17 C6         23.0817   15.9411   29.5240 C.ar    1  lig         0.1263
     18 C7         26.6554   12.3117   28.6185 C.2     1  lig         0.9365
     19 C8         27.0183   14.3569   29.9932 C.3     1  lig        -0.0459
     20 C9         27.5405   13.5194   28.8254 C.3     1  lig        -0.0743
     21 N1         27.5691   14.3769   27.6411 N.4     1  lig        -0.8330
     22 O1         26.8136   11.4135   29.4423 O.co2   1  lig        -0.7110
     23 O2         25.8362   12.2042   27.6613 O.co2   1  lig        -0.8016
     24 O3         21.9381   16.4853   29.3929 O.3     1  lig        -0.4958
@<TRIPOS>BOND
     1    20    21    1
     2     8    21    1
     3     9    21    1
     4    10    21    1
     5    18    20    1
     6    19    20    1
     7     7    20    1
     8    18    23    1
     9    18    22    1
    10    16    19    1
    11     5    19    1
    12     6    19    1
    13    12    16   ar
    14    13    16   ar
    15    12    14   ar
    16     1    12    1
    17    13    15   ar
    18     2    13    1
    19    14    17   ar
    20     3    14    1
    21    15    17   ar
    22     4    15    1
    23    17    24    1
    24    11    24    1
@<TRIPOS>SUBSTRUCTURE
     1 lig         1 TEMP              0 ****  ****    0 ROOT


########## Name:		ligand
########## HA_RMSDs:		13.9225
########## HA_RMSDh:		13.8994
########## HA_RMSDm:		11.5707
########## Cluster Size:	1
##########    Grid Score:           -6.570409
##########      Grid_vdw:           -6.534774
##########       Grid_es:           -0.035635
##########    Int_energy:            8.515886

@<TRIPOS>MOLECULE
ligand
 24 24 1 0 0
SMALL
No Charge or Current Charge


@<TRIPOS>ATOM
      1 H1         13.3360   10.6297   27.8809 H       1  lig         0.1313
      2 H2          9.8918   13.0094   27.0372 H       1  lig         0.1473
      3 H3         14.6215   12.6750   28.2197 H       1  lig         0.1394
      4 H4         11.1981   15.0798   27.3268 H       1  lig         0.1574
      5 H5         10.1968   10.5181   26.2739 H       1  lig         0.1170
      6 H6         11.3947    9.5670   27.0911 H       1  lig         0.0678
      7 H7          9.1669    9.1911   28.1006 H       1  lig         0.0912
      8 H8          8.2611   11.3865   27.5440 H       1  lig         0.4249
      9 H9          8.0849   11.1231   29.1790 H       1  lig         0.4256
     10 H10         9.3063   12.1188   28.6260 H       1  lig         0.4835
     11 H11        14.6374   14.7112   28.3307 H       1  lig         0.4236
     12 C1         12.8565   11.5979   27.7507 C.ar    1  lig        -0.1098
     13 C2         10.9489   12.9439   27.2904 C.ar    1  lig        -0.0948
     14 C3         13.5739   12.7461   27.9449 C.ar    1  lig        -0.2079
     15 C4         11.6738   14.1100   27.4450 C.ar    1  lig        -0.1468
     16 C5         11.5406   11.6922   27.4158 C.ar    1  lig        -0.1510
     17 C6         13.0201   13.9863   27.7676 C.ar    1  lig         0.1263
     18 C7         10.4503    9.8713   29.6339 C.2     1  lig         0.9365
     19 C8         10.7312   10.4241   27.2215 C.3     1  lig        -0.0459
     20 C9          9.7259   10.1008   28.3273 C.3     1  lig        -0.0743
     21 N1          8.7900   11.2209   28.4186 N.4     1  lig        -0.8330
     22 O1          9.9532    9.0046   30.3498 O.co2   1  lig        -0.7110
     23 O2         11.4677   10.5313   29.9917 O.co2   1  lig        -0.8016
     24 O3         13.7464   15.0098   27.9826 O.3     1  lig        -0.4958
@<TRIPOS>BOND
     1    20    21    1
     2     8    21    1
     3     9    21    1
     4    10    21    1
     5    18    20    1
     6    19    20    1
     7     7    20    1
     8    18    23    1
     9    18    22    1
    10    16    19    1
    11     5    19    1
    12     6    19    1
    13    12    16   ar
    14    13    16   ar
    15    12    14   ar
    16     1    12    1
    17    13    15   ar
    18     2    13    1
    19    14    17   ar
    20     3    14    1
    21    15    17   ar
    22     4    15    1
    23    17    24    1
    24    11    24    1
@<TRIPOS>SUBSTRUCTURE
     1 lig         1 TEMP              0 ****  ****    0 ROOT


########## Name:		ligand
########## HA_RMSDs:		16.7318
########## HA_RMSDh:		16.7145
########## HA_RMSDm:		14.9953
########## Cluster Size:	1
##########    Grid Score:           -6.011371
##########      Grid_vdw:           -4.774569
##########       Grid_es:           -1.236801
##########    Int_energy:            5.705304

@<TRIPOS>MOLECULE
ligand
 24 24 1 0 0
SMALL
No Charge or Current Charge


@<TRIPOS>ATOM
      1 H1         26.1132    3.9668   16.0953 H       1  lig         0.1313
      2 H2         22.0056    2.7995   16.0501 H       1  lig         0.1473
      3 H3         26.2135    3.3903   18.4634 H       1  lig         0.1394
      4 H4         22.0864    2.2648   18.4552 H       1  lig         0.1574
      5 H5         22.9572    3.6110   14.1231 H       1  lig         0.1170
      6 H6         24.1605    4.8468   14.3022 H       1  lig         0.0678
      7 H7         25.9758    3.1981   13.7960 H       1  lig         0.0912
      8 H8         24.8500    4.4211   12.0107 H       1  lig         0.4249
      9 H9         25.2471    2.8995   11.4622 H       1  lig         0.4256
     10 H10        23.6733    3.2361   11.9082 H       1  lig         0.4835
     11 H11        23.5807    2.9748   20.3684 H       1  lig         0.4236
     12 C1         25.2221    3.6004   16.6012 C.ar    1  lig        -0.1098
     13 C2         22.9364    2.9382   16.5979 C.ar    1  lig        -0.0948
     14 C3         25.2770    3.2718   17.9277 C.ar    1  lig        -0.2079
     15 C4         22.9700    2.6411   17.9469 C.ar    1  lig        -0.1468
     16 C5         24.0480    3.4408   15.9313 C.ar    1  lig        -0.1510
     17 C6         24.1754    2.8313   18.6122 C.ar    1  lig         0.1263
     18 C7         24.7087    1.5096   13.7310 C.2     1  lig         0.9365
     19 C8         23.9838    3.7803   14.4542 C.3     1  lig        -0.0459
     20 C9         24.9324    2.9934   13.5492 C.3     1  lig        -0.0743
     21 N1         24.6812    3.4122   12.1708 N.4     1  lig        -0.8330
     22 O1         24.6979    0.8615   12.6868 O.co2   1  lig        -0.7110
     23 O2         24.5141    0.9672   14.8565 O.co2   1  lig        -0.8016
     24 O3         24.3079    2.5294   19.8421 O.3     1  lig        -0.4958
@<TRIPOS>BOND
     1    20    21    1
     2     8    21    1
     3     9    21    1
     4    10    21    1
     5    18    20    1
     6    19    20    1
     7     7    20    1
     8    18    23    1
     9    18    22    1
    10    16    19    1
    11     5    19    1
    12     6    19    1
    13    12    16   ar
    14    13    16   ar
    15    12    14   ar
    16     1    12    1
    17    13    15   ar
    18     2    13    1
    19    14    17   ar
    20     3    14    1
    21    15    17   ar
    22     4    15    1
    23    17    24    1
    24    11    24    1
@<TRIPOS>SUBSTRUCTURE
     1 lig         1 TEMP              0 ****  ****    0 ROOT


########## Name:		ligand
########## HA_RMSDs:		16.7534
########## HA_RMSDh:		16.7028
########## HA_RMSDm:		14.2295
########## Cluster Size:	1
##########    Grid Score:           -5.862466
##########      Grid_vdw:           -4.125798
##########       Grid_es:           -1.736668
##########    Int_energy:            6.491919

@<TRIPOS>MOLECULE
ligand
 24 24 1 0 0
SMALL
No Charge or Current Charge


@<TRIPOS>ATOM
      1 H1         24.1901    3.8568   19.0708 H       1  lig         0.1313
      2 H2         28.1733    4.5188   17.6803 H       1  lig         0.1473
      3 H3         24.9256    1.7548   20.0664 H       1  lig         0.1394
      4 H4         28.9110    2.3709   18.6389 H       1  lig         0.1574
      5 H5         25.0133    6.1039   18.4051 H       1  lig         0.1170
      6 H6         26.5316    6.3040   17.5915 H       1  lig         0.0678
      7 H7         24.6474    6.5099   15.9909 H       1  lig         0.0912
      8 H8         23.1246    5.0360   17.1987 H       1  lig         0.4249
      9 H9         23.2714    4.4993   15.6290 H       1  lig         0.4256
     10 H10        24.0915    3.7147   16.8541 H       1  lig         0.4835
     11 H11        28.1447    0.5260   19.6257 H       1  lig         0.4236
     12 C1         25.2259    3.5406   18.9637 C.ar    1  lig        -0.1098
     13 C2         27.4537    3.8918   18.2045 C.ar    1  lig        -0.0948
     14 C3         25.6419    2.3649   19.5252 C.ar    1  lig        -0.2079
     15 C4         27.8757    2.6869   18.7333 C.ar    1  lig        -0.1468
     16 C5         26.1301    4.3070   18.2944 C.ar    1  lig        -0.1510
     17 C6         26.9287    1.9140   19.3948 C.ar    1  lig         0.1263
     18 C7         25.9228    4.9767   15.2954 C.2     1  lig         0.9365
     19 C8         25.6831    5.6239   17.6887 C.3     1  lig        -0.0459
     20 C9         24.9757    5.5279   16.3365 C.3     1  lig        -0.0743
     21 N1         23.8036    4.6703   16.5080 N.4     1  lig        -0.8330
     22 O1         25.3795    4.5862   14.2643 O.co2   1  lig        -0.7110
     23 O2         27.1722    4.8871   15.4679 O.co2   1  lig        -0.8016
     24 O3         27.2459    0.8175   19.9593 O.3     1  lig        -0.4958
@<TRIPOS>BOND
     1    20    21    1
     2     8    21    1
     3     9    21    1
     4    10    21    1
     5    18    20    1
     6    19    20    1
     7     7    20    1
     8    18    23    1
     9    18    22    1
    10    16    19    1
    11     5    19    1
    12     6    19    1
    13    12    16   ar
    14    13    16   ar
    15    12    14   ar
    16     1    12    1
    17    13    15   ar
    18     2    13    1
    19    14    17   ar
    20     3    14    1
    21    15    17   ar
    22     4    15    1
    23    17    24    1
    24    11    24    1
@<TRIPOS>SUBSTRUCTURE
     1 lig         1 TEMP              0 ****  ****    0 ROOT


########## Name:		ligand
########## HA_RMSDs:		13.3327
########## HA_RMSDh:		13.2639
########## HA_RMSDm:		10.9929
########## Cluster Size:	1
##########    Grid Score:           -4.663720
##########      Grid_vdw:           -3.587057
##########       Grid_es:           -1.076663
##########    Int_energy:            2.693593

@<TRIPOS>MOLECULE
ligand
 24 24 1 0 0
SMALL
No Charge or Current Charge


@<TRIPOS>ATOM
      1 H1         18.7886   16.4556   29.0502 H       1  lig         0.1313
      2 H2         17.6165   13.2206   31.5797 H       1  lig         0.1473
      3 H3         19.1822   17.8176   31.0353 H       1  lig         0.1394
      4 H4         17.9622   14.6084   33.5874 H       1  lig         0.1574
      5 H5         18.3116   14.4548   28.1000 H       1  lig         0.1170
      6 H6         18.5330   12.9969   29.0126 H       1  lig         0.0678
      7 H7         16.0630   12.9232   29.5118 H       1  lig         0.0912
      8 H8         17.0174   11.8236   27.5547 H       1  lig         0.4249
      9 H9         15.5049   12.4046   27.1695 H       1  lig         0.4256
     10 H10        16.8649   13.2294   26.6604 H       1  lig         0.4835
     11 H11        19.1826   17.9608   33.0653 H       1  lig         0.4236
     12 C1         18.5980   16.0402   30.0378 C.ar    1  lig        -0.1098
     13 C2         17.9552   14.2493   31.4669 C.ar    1  lig        -0.0948
     14 C3         18.8227   16.8002   31.1526 C.ar    1  lig        -0.2079
     15 C4         18.1405   15.0209   32.5981 C.ar    1  lig        -0.1468
     16 C5         18.1565   14.7617   30.1904 C.ar    1  lig        -0.1510
     17 C6         18.5729   16.3290   32.4143 C.ar    1  lig         0.1263
     18 C7         15.6210   14.7453   28.5394 C.2     1  lig         0.9365
     19 C8         17.9272   13.9037   28.9607 C.3     1  lig        -0.0459
     20 C9         16.4759   13.5075   28.6874 C.3     1  lig        -0.0743
     21 N1         16.4589   12.6916   27.4739 N.4     1  lig        -0.8330
     22 O1         14.4436   14.5958   28.8587 O.co2   1  lig        -0.7110
     23 O2         16.0584   15.8448   28.0938 O.co2   1  lig        -0.8016
     24 O3         18.8218   17.0897   33.4046 O.3     1  lig        -0.4958
@<TRIPOS>BOND
     1    20    21    1
     2     8    21    1
     3     9    21    1
     4    10    21    1
     5    18    20    1
     6    19    20    1
     7     7    20    1
     8    18    23    1
     9    18    22    1
    10    16    19    1
    11     5    19    1
    12     6    19    1
    13    12    16   ar
    14    13    16   ar
    15    12    14   ar
    16     1    12    1
    17    13    15   ar
    18     2    13    1
    19    14    17   ar
    20     3    14    1
    21    15    17   ar
    22     4    15    1
    23    17    24    1
    24    11    24    1
@<TRIPOS>SUBSTRUCTURE
     1 lig         1 TEMP              0 ****  ****    0 ROOT


########## Name:		ligand
########## HA_RMSDs:		17.1621
########## HA_RMSDh:		17.1228
########## HA_RMSDm:		14.3212
########## Cluster Size:	1
##########    Grid Score:           -3.357535
##########      Grid_vdw:           -4.667737
##########       Grid_es:            1.310202
##########    Int_energy:            4.874997

@<TRIPOS>MOLECULE
ligand
 24 24 1 0 0
SMALL
No Charge or Current Charge


@<TRIPOS>ATOM
      1 H1         27.8016    1.3633   14.7022 H       1  lig         0.1313
      2 H2         25.5210    4.8097   15.7783 H       1  lig         0.1473
      3 H3         29.4550    1.9756   16.3878 H       1  lig         0.1394
      4 H4         27.2141    5.4623   17.4469 H       1  lig         0.1574
      5 H5         25.7296    1.6438   13.7875 H       1  lig         0.1170
      6 H6         24.5361    2.6541   14.5374 H       1  lig         0.0678
      7 H7         24.7485    3.1755   12.1160 H       1  lig         0.0912
      8 H8         27.1054    2.5746   11.9318 H       1  lig         0.4249
      9 H9         26.8950    4.1303   11.3760 H       1  lig         0.4256
     10 H10        27.5366    3.8721   12.8961 H       1  lig         0.4835
     11 H11        29.3037    4.9607   18.1285 H       1  lig         0.4236
     12 C1         27.6633    2.2670   15.2925 C.ar    1  lig        -0.1098
     13 C2         26.4059    4.1895   15.9132 C.ar    1  lig        -0.0948
     14 C3         28.5864    2.6098   16.2417 C.ar    1  lig        -0.2079
     15 C4         27.3519    4.5669   16.8470 C.ar    1  lig        -0.1468
     16 C5         26.5707    3.0602   15.1196 C.ar    1  lig        -0.1510
     17 C6         28.4677    3.7506   16.9904 C.ar    1  lig         0.1263
     18 C7         25.0663    4.9579   13.2036 C.2     1  lig         0.9365
     19 C8         25.5298    2.6751   14.0856 C.3     1  lig        -0.0459
     20 C9         25.4796    3.5518   12.8339 C.3     1  lig        -0.0743
     21 N1         26.8057    3.5234   12.2179 N.4     1  lig        -0.8330
     22 O1         25.8385    5.8354   12.8238 O.co2   1  lig        -0.7110
     23 O2         24.0300    5.2251   13.8770 O.co2   1  lig        -0.8016
     24 O3         29.3590    3.9951   17.8663 O.3     1  lig        -0.4958
@<TRIPOS>BOND
     1    20    21    1
     2     8    21    1
     3     9    21    1
     4    10    21    1
     5    18    20    1
     6    19    20    1
     7     7    20    1
     8    18    23    1
     9    18    22    1
    10    16    19    1
    11     5    19    1
    12     6    19    1
    13    12    16   ar
    14    13    16   ar
    15    12    14   ar
    16     1    12    1
    17    13    15   ar
    18     2    13    1
    19    14    17   ar
    20     3    14    1
    21    15    17   ar
    22     4    15    1
    23    17    24    1
    24    11    24    1
@<TRIPOS>SUBSTRUCTURE
     1 lig         1 TEMP              0 ****  ****    0 ROOT


########## Name:		ligand
########## HA_RMSDs:		17.8697
########## HA_RMSDh:		17.8519
########## HA_RMSDm:		15.4326
########## Cluster Size:	1
##########    Grid Score:           -1.650762
##########      Grid_vdw:           -2.070655
##########       Grid_es:            0.419893
##########    Int_energy:            7.995877

@<TRIPOS>MOLECULE
ligand
 24 24 1 0 0
SMALL
No Charge or Current Charge


@<TRIPOS>ATOM
      1 H1         28.0555    0.8945   16.8350 H       1  lig         0.1313
      2 H2         27.1369    5.0326   17.3542 H       1  lig         0.1473
      3 H3         25.8045    0.3370   17.5915 H       1  lig         0.1394
      4 H4         24.8786    4.4734   18.1693 H       1  lig         0.1574
      5 H5         29.4694    4.2224   17.1486 H       1  lig         0.1170
      6 H6         29.8407    2.5570   16.8392 H       1  lig         0.0678
      7 H7         28.6138    3.0015   14.4978 H       1  lig         0.0912
      8 H8         30.9592    2.4365   14.8584 H       1  lig         0.4249
      9 H9         30.8585    3.6343   13.7057 H       1  lig         0.4256
     10 H10        31.3031    4.0218   15.2682 H       1  lig         0.4835
     11 H11        23.5287    2.7867   18.5832 H       1  lig         0.4236
     12 C1         27.3717    1.6881   17.1297 C.ar    1  lig        -0.1098
     13 C2         26.8354    3.9883   17.4202 C.ar    1  lig        -0.0948
     14 C3         26.1074    1.3785   17.5495 C.ar    1  lig        -0.2079
     15 C4         25.5696    3.6849   17.8838 C.ar    1  lig        -0.1468
     16 C5         27.7437    2.9961   17.0694 C.ar    1  lig        -0.1510
     17 C6         25.2212    2.3412   17.9544 C.ar    1  lig         0.1263
     18 C7         28.8428    5.0775   14.8119 C.2     1  lig         0.9365
     19 C8         29.1360    3.3503   16.5825 C.3     1  lig        -0.0459
     20 C9         29.2615    3.6517   15.0887 C.3     1  lig        -0.0743
     21 N1         30.6515    3.4127   14.7023 N.4     1  lig        -0.8330
     22 O1         29.1295    5.4867   13.6889 O.co2   1  lig        -0.7110
     23 O2         28.2721    5.8144   15.6663 O.co2   1  lig        -0.8016
     24 O3         24.0561    1.9773   18.3170 O.3     1  lig        -0.4958
@<TRIPOS>BOND
     1    20    21    1
     2     8    21    1
     3     9    21    1
     4    10    21    1
     5    18    20    1
     6    19    20    1
     7     7    20    1
     8    18    23    1
     9    18    22    1
    10    16    19    1
    11     5    19    1
    12     6    19    1
    13    12    16   ar
    14    13    16   ar
    15    12    14   ar
    16     1    12    1
    17    13    15   ar
    18     2    13    1
    19    14    17   ar
    20     3    14    1
    21    15    17   ar
    22     4    15    1
    23    17    24    1
    24    11    24    1
@<TRIPOS>SUBSTRUCTURE
     1 lig         1 TEMP              0 ****  ****    0 ROOT

