
########## Name:		ligand
########## HA_RMSDs:		0.2219
########## HA_RMSDh:		0.2219
########## HA_RMSDm:		0.1264
########## Cluster Size:	33
##########    Grid Score:          -51.114342
##########      Grid_vdw:          -46.958035
##########       Grid_es:           -4.156307
##########    Int_energy:            3.145013

@<TRIPOS>MOLECULE
ligand
 48 51 1 0 0
SMALL
No Charge or Current Charge


@<TRIPOS>ATOM
      1 H1         18.6323   21.9886   23.7213 H       1  lig         0.1670
      2 H2         22.5428   19.8034   15.6149 H       1  lig         0.1473
      3 H3         22.6407   18.7265   17.7128 H       1  lig         0.0559
      4 H4         21.5757   17.3659   17.4469 H       1  lig         0.0575
      5 H5         18.8300   19.5634   14.1889 H       1  lig         0.0688
      6 H6         18.6902   21.3198   14.2367 H       1  lig         0.0740
      7 H7         21.5144   19.3921   19.6883 H       1  lig         0.0477
      8 H8         21.6129   17.6389   19.8022 H       1  lig         0.0465
      9 H9         17.5324   20.1306   16.1344 H       1  lig         0.0495
     10 H10        18.7000   21.3390   16.6724 H       1  lig         0.0527
     11 H11        20.7639   18.0747   22.1762 H       1  lig         0.0459
     12 H12        20.0004   16.5871   21.5763 H       1  lig         0.0459
     13 H13        16.8716   18.6042   18.2335 H       1  lig         0.0438
     14 H14        17.0360   20.3369   18.2268 H       1  lig         0.0425
     15 H15        18.4779   16.6019   23.2454 H       1  lig         0.0681
     16 H16        19.2288   17.9603   23.9981 H       1  lig         0.0571
     17 H17        15.9550   19.4766   20.3007 H       1  lig         0.0423
     18 H18        17.3653   20.4642   20.5603 H       1  lig         0.0489
     19 H19        18.9750   18.3470   16.6470 H       1  lig         0.0634
     20 H20        19.3733   17.4285   19.0564 H       1  lig         0.0564
     21 H21        19.2846   20.2075   18.7625 H       1  lig         0.0555
     22 H22        19.4400   19.3822   21.0392 H       1  lig         0.0551
     23 H23        17.3433   16.2026   21.3219 H       1  lig         0.0433
     24 H24        15.9452   17.0305   20.6898 H       1  lig         0.0424
     25 H25        17.3125   16.7023   19.6322 H       1  lig         0.0357
     26 H26        15.7063   18.6622   22.8922 H       1  lig         0.4072
     27 C1         18.2808   21.0303   23.4056 C.1     1  lig        -0.1335
     28 C2         17.8976   19.8742   23.0238 C.1     1  lig        -0.1688
     29 C3         21.4677   19.8656   15.7360 C.2     1  lig        -0.2674
     30 C4         20.7233   19.2264   16.7847 C.2     1  lig        -0.0292
     31 C5         20.6415   20.5754   14.7238 C.2     1  lig         0.5673
     32 C6         21.5962   18.4100   17.7682 C.3     1  lig        -0.0559
     33 C7         19.1236   20.4652   14.7259 C.3     1  lig        -0.1823
     34 C8         21.1509   18.4598   19.2566 C.3     1  lig        -0.0728
     35 C9         18.5983   20.3589   16.1972 C.3     1  lig        -0.0705
     36 C10        19.8159   17.6118   21.8921 C.3     1  lig        -0.0740
     37 C11        17.4141   19.4333   18.6940 C.3     1  lig        -0.0723
     38 C12        18.8052   17.6243   23.0610 C.3     1  lig        -0.0690
     39 C13        17.0405   19.4873   20.1997 C.3     1  lig        -0.0643
     40 C14        19.3428   19.2918   17.0566 C.3     1  lig        -0.0353
     41 C15        19.6014   18.4363   19.4103 C.3     1  lig        -0.0466
     42 C16        18.9303   19.2234   18.4370 C.3     1  lig        -0.0538
     43 C17        19.1368   18.3677   20.7639 C.3     1  lig        -0.0659
     44 C18        17.6106   18.4733   22.5954 C.3     1  lig         0.2372
     45 C19        17.6473   18.3732   21.0743 C.3     1  lig        -0.0680
     46 C20        17.0354   16.9879   20.6479 C.3     1  lig        -0.0802
     47 O1         21.2343   21.1642   13.8861 O.2     1  lig        -0.5348
     48 O2         16.3999   18.0678   23.2423 O.3     1  lig        -0.5805
@<TRIPOS>BOND
     1    31    47    2
     2    31    33    1
     3    29    31    1
     4    33    35    1
     5     5    33    1
     6     6    33    1
     7    29    30    2
     8     2    29    1
     9    30    32    1
    10    30    40    1
    11    32    34    1
    12     3    32    1
    13     4    32    1
    14    35    40    1
    15    40    42    1
    16    19    40    1
    17     9    35    1
    18    10    35    1
    19    41    42    1
    20    37    42    1
    21    21    42    1
    22    34    41    1
    23    41    43    1
    24    20    41    1
    25     7    34    1
    26     8    34    1
    27    37    39    1
    28    13    37    1
    29    14    37    1
    30    39    45    1
    31    17    39    1
    32    18    39    1
    33    43    45    1
    34    45    46    1
    35    44    45    1
    36    36    43    1
    37    22    43    1
    38    23    46    1
    39    24    46    1
    40    25    46    1
    41    44    48    1
    42    38    44    1
    43    28    44    1
    44    26    48    1
    45    36    38    1
    46    15    38    1
    47    16    38    1
    48    11    36    1
    49    12    36    1
    50    27    28    3
    51     1    27    1
@<TRIPOS>SUBSTRUCTURE
     1 lig         1 TEMP              0 ****  ****    0 ROOT


########## Name:		ligand
########## HA_RMSDs:		17.2663
########## HA_RMSDh:		16.7496
########## HA_RMSDm:		9.5453
########## Cluster Size:	12
##########    Grid Score:          -31.653702
##########      Grid_vdw:          -30.107193
##########       Grid_es:           -1.546510
##########    Int_energy:            3.231288

@<TRIPOS>MOLECULE
ligand
 48 51 1 0 0
SMALL
No Charge or Current Charge


@<TRIPOS>ATOM
      1 H1         29.3411   25.7293    5.6808 H       1  lig         0.1670
      2 H2         21.7402   20.7862    7.9901 H       1  lig         0.1473
      3 H3         21.8776   22.6663    6.5701 H       1  lig         0.0559
      4 H4         21.8136   21.9091    4.9957 H       1  lig         0.0575
      5 H5         23.8109   17.7807    6.3918 H       1  lig         0.0688
      6 H6         24.9020   17.7865    7.7760 H       1  lig         0.0740
      7 H7         23.8363   23.8929    6.0475 H       1  lig         0.0477
      8 H8         22.8396   24.0105    4.6021 H       1  lig         0.0465
      9 H9         25.8307   18.8987    5.7129 H       1  lig         0.0495
     10 H10        25.8390   19.9418    7.1358 H       1  lig         0.0527
     11 H11        24.6189   25.7151    3.9131 H       1  lig         0.0459
     12 H12        24.1334   24.8024    2.4685 H       1  lig         0.0459
     13 H13        26.2825   20.4163    3.5530 H       1  lig         0.0438
     14 H14        27.1143   20.5164    5.0785 H       1  lig         0.0425
     15 H15        25.9090   25.5617    1.2959 H       1  lig         0.0681
     16 H16        26.3910   26.6012    2.5853 H       1  lig         0.0571
     17 H17        28.2351   21.8256    3.2787 H       1  lig         0.0423
     18 H18        27.8352   22.7332    4.7098 H       1  lig         0.0489
     19 H19        23.9745   19.9986    4.7803 H       1  lig         0.0634
     20 H20        24.0962   22.2974    3.5522 H       1  lig         0.0564
     21 H21        25.5828   22.0425    5.9064 H       1  lig         0.0555
     22 H22        25.8850   24.1117    4.6753 H       1  lig         0.0551
     23 H23        25.7917   23.3243    0.9393 H       1  lig         0.0433
     24 H24        27.0417   22.1238    1.1289 H       1  lig         0.0424
     25 H25        25.4425   21.8265    1.7997 H       1  lig         0.0357
     26 H26        28.5904   25.5251    1.4581 H       1  lig         0.4072
     27 C1         28.7471   25.4786    4.8289 C.1     1  lig        -0.1335
     28 C2         28.0597   25.1481    3.8054 C.1     1  lig        -0.1688
     29 C3         22.6171   20.3896    7.4922 C.2     1  lig        -0.2674
     30 C4         23.2177   20.9553    6.3168 C.2     1  lig        -0.0292
     31 C5         23.2328   19.1199    7.9615 C.2     1  lig         0.5673
     32 C6         22.4978   22.2198    5.7889 C.3     1  lig        -0.0559
     33 C7         24.2969   18.4076    7.1392 C.3     1  lig        -0.1823
     34 C8         23.4255   23.3256    5.2125 C.3     1  lig        -0.0728
     35 C9         25.1913   19.4582    6.3988 C.3     1  lig        -0.0705
     36 C10        24.9566   25.0117    3.1484 C.3     1  lig        -0.0740
     37 C11        26.5147   21.0913    4.3802 C.3     1  lig        -0.0723
     38 C12        26.1602   25.5695    2.3558 C.3     1  lig        -0.0690
     39 C13        27.3984   22.2461    3.8370 C.3     1  lig        -0.0643
     40 C14        24.3805   20.5486    5.6337 C.3     1  lig        -0.0353
     41 C15        24.6191   22.7337    4.4062 C.3     1  lig        -0.0466
     42 C16        25.1774   21.5725    5.0038 C.3     1  lig        -0.0538
     43 C17        25.4442   23.7095    3.7583 C.3     1  lig        -0.0659
     44 C18        27.3349   24.6119    2.6155 C.3     1  lig         0.2372
     45 C19        26.6694   23.2845    2.9625 C.3     1  lig        -0.0680
     46 C20        26.1947   22.5978    1.6290 C.3     1  lig        -0.0802
     47 O1         22.7975   18.6684    8.9647 O.2     1  lig        -0.5348
     48 O2         28.2558   24.6080    1.5199 O.3     1  lig        -0.5805
@<TRIPOS>BOND
     1    31    47    2
     2    31    33    1
     3    29    31    1
     4    33    35    1
     5     5    33    1
     6     6    33    1
     7    29    30    2
     8     2    29    1
     9    30    32    1
    10    30    40    1
    11    32    34    1
    12     3    32    1
    13     4    32    1
    14    35    40    1
    15    40    42    1
    16    19    40    1
    17     9    35    1
    18    10    35    1
    19    41    42    1
    20    37    42    1
    21    21    42    1
    22    34    41    1
    23    41    43    1
    24    20    41    1
    25     7    34    1
    26     8    34    1
    27    37    39    1
    28    13    37    1
    29    14    37    1
    30    39    45    1
    31    17    39    1
    32    18    39    1
    33    43    45    1
    34    45    46    1
    35    44    45    1
    36    36    43    1
    37    22    43    1
    38    23    46    1
    39    24    46    1
    40    25    46    1
    41    44    48    1
    42    38    44    1
    43    28    44    1
    44    26    48    1
    45    36    38    1
    46    15    38    1
    47    16    38    1
    48    11    36    1
    49    12    36    1
    50    27    28    3
    51     1    27    1
@<TRIPOS>SUBSTRUCTURE
     1 lig         1 TEMP              0 ****  ****    0 ROOT


########## Name:		ligand
########## HA_RMSDs:		13.9521
########## HA_RMSDh:		13.8120
########## HA_RMSDm:		8.6688
########## Cluster Size:	18
##########    Grid Score:          -25.559061
##########      Grid_vdw:          -25.042044
##########       Grid_es:           -0.517018
##########    Int_energy:            3.004740

@<TRIPOS>MOLECULE
ligand
 48 51 1 0 0
SMALL
No Charge or Current Charge


@<TRIPOS>ATOM
      1 H1         22.5757   17.7976   30.6006 H       1  lig         0.1670
      2 H2         13.7872   21.6261   29.5194 H       1  lig         0.1473
      3 H3         14.4532   19.3715   29.7283 H       1  lig         0.0559
      4 H4         14.0377   19.0470   31.3951 H       1  lig         0.0575
      5 H5         14.6252   23.5604   32.9005 H       1  lig         0.0688
      6 H6         15.7428   24.6105   32.0315 H       1  lig         0.0740
      7 H7         16.6711   18.5793   29.9882 H       1  lig         0.0477
      8 H8         15.6797   17.4201   30.8654 H       1  lig         0.0465
      9 H9         16.8541   22.7783   33.3596 H       1  lig         0.0495
     10 H10        17.3031   22.7786   31.6534 H       1  lig         0.0527
     11 H11        17.8780   16.1149   30.9674 H       1  lig         0.0459
     12 H12        17.0227   15.8858   32.5074 H       1  lig         0.0459
     13 H13        17.6464   20.4588   34.4390 H       1  lig         0.0438
     14 H14        18.5609   21.4540   33.3422 H       1  lig         0.0425
     15 H15        18.8699   15.0434   33.4983 H       1  lig         0.0681
     16 H16        19.7544   15.0833   32.0179 H       1  lig         0.0571
     17 H17        19.9358   19.6643   34.3988 H       1  lig         0.0423
     18 H18        19.9562   19.6779   32.6578 H       1  lig         0.0489
     19 H19        15.4164   20.9376   33.0954 H       1  lig         0.0634
     20 H20        16.2201   18.4612   32.9245 H       1  lig         0.0564
     21 H21        17.6851   20.3663   31.4957 H       1  lig         0.0555
     22 H22        18.5815   18.1113   31.4913 H       1  lig         0.0551
     23 H23        17.9882   16.5642   34.9324 H       1  lig         0.0433
     24 H24        18.7742   17.9127   35.7091 H       1  lig         0.0424
     25 H25        17.2147   18.1477   34.9290 H       1  lig         0.0357
     26 H26        21.2270   17.2917   34.6869 H       1  lig         0.4072
     27 C1         21.8109   17.5949   31.3186 C.1     1  lig        -0.1335
     28 C2         20.9163   17.3207   32.1868 C.1     1  lig        -0.1688
     29 C3         14.4468   21.8612   30.3465 C.2     1  lig        -0.2674
     30 C4         15.1245   20.8877   31.1559 C.2     1  lig        -0.0292
     31 C5         14.6314   23.2725   30.7771 C.2     1  lig         0.5673
     32 C6         14.8363   19.4220   30.7506 C.3     1  lig        -0.0559
     33 C7         15.3404   23.6139   32.0798 C.3     1  lig        -0.1823
     34 C8         16.0411   18.4469   30.8675 C.3     1  lig        -0.0728
     35 C9         16.4846   22.5801   32.3515 C.3     1  lig        -0.0705
     36 C10        17.9106   16.3085   32.0421 C.3     1  lig        -0.0740
     37 C11        18.1442   20.4597   33.4663 C.3     1  lig        -0.0723
     38 C12        19.1774   15.7050   32.6895 C.3     1  lig        -0.0690
     39 C13        19.3260   19.4547   33.5197 C.3     1  lig        -0.0643
     40 C14        16.0374   21.0930   32.2088 C.3     1  lig        -0.0353
     41 C15        16.9130   18.7340   32.1254 C.3     1  lig        -0.0466
     42 C16        17.0882   20.1202   32.3806 C.3     1  lig        -0.0538
     43 C17        17.9731   17.7953   32.3439 C.3     1  lig        -0.0659
     44 C18        19.9785   16.8854   33.2635 C.3     1  lig         0.2372
     45 C19        18.9313   17.9652   33.5136 C.3     1  lig        -0.0680
     46 C20        18.1688   17.6253   34.8471 C.3     1  lig        -0.0802
     47 O1         14.1362   24.0973   30.0885 O.2     1  lig        -0.5348
     48 O2         20.7719   16.4805   34.3838 O.3     1  lig        -0.5805
@<TRIPOS>BOND
     1    31    47    2
     2    31    33    1
     3    29    31    1
     4    33    35    1
     5     5    33    1
     6     6    33    1
     7    29    30    2
     8     2    29    1
     9    30    32    1
    10    30    40    1
    11    32    34    1
    12     3    32    1
    13     4    32    1
    14    35    40    1
    15    40    42    1
    16    19    40    1
    17     9    35    1
    18    10    35    1
    19    41    42    1
    20    37    42    1
    21    21    42    1
    22    34    41    1
    23    41    43    1
    24    20    41    1
    25     7    34    1
    26     8    34    1
    27    37    39    1
    28    13    37    1
    29    14    37    1
    30    39    45    1
    31    17    39    1
    32    18    39    1
    33    43    45    1
    34    45    46    1
    35    44    45    1
    36    36    43    1
    37    22    43    1
    38    23    46    1
    39    24    46    1
    40    25    46    1
    41    44    48    1
    42    38    44    1
    43    28    44    1
    44    26    48    1
    45    36    38    1
    46    15    38    1
    47    16    38    1
    48    11    36    1
    49    12    36    1
    50    27    28    3
    51     1    27    1
@<TRIPOS>SUBSTRUCTURE
     1 lig         1 TEMP              0 ****  ****    0 ROOT


########## Name:		ligand
########## HA_RMSDs:		14.0067
########## HA_RMSDh:		13.8390
########## HA_RMSDm:		9.6652
########## Cluster Size:	2
##########    Grid Score:          -24.032036
##########      Grid_vdw:          -23.667870
##########       Grid_es:           -0.364165
##########    Int_energy:            3.008102

@<TRIPOS>MOLECULE
ligand
 48 51 1 0 0
SMALL
No Charge or Current Charge


@<TRIPOS>ATOM
      1 H1         21.2309   15.1162    4.2299 H       1  lig         0.1670
      2 H2         24.0020   24.3115    4.2328 H       1  lig         0.1473
      3 H3         22.1171   23.2703    5.1990 H       1  lig         0.0559
      4 H4         22.5901   23.2031    6.8807 H       1  lig         0.0575
      5 H5         27.3011   22.9739    6.0223 H       1  lig         0.0688
      6 H6         27.8576   22.2854    4.4981 H       1  lig         0.0740
      7 H7         21.5905   20.9616    5.1173 H       1  lig         0.0477
      8 H8         20.9443   21.5104    6.6592 H       1  lig         0.0465
      9 H9         26.8759   20.6068    6.1025 H       1  lig         0.0495
     10 H10        26.0981   20.6010    4.5189 H       1  lig         0.0527
     11 H11        19.8896   19.1793    6.6725 H       1  lig         0.0459
     12 H12        20.3775   19.5790    8.3332 H       1  lig         0.0459
     13 H13        25.3393   19.2186    7.8010 H       1  lig         0.0438
     14 H14        25.7368   18.7722    6.1663 H       1  lig         0.0425
     15 H15        20.1354   17.4353    9.0040 H       1  lig         0.0681
     16 H16        19.5080   16.9634    7.4680 H       1  lig         0.0571
     17 H17        24.6737   16.9156    7.4440 H       1  lig         0.0423
     18 H18        23.8809   17.3304    5.9503 H       1  lig         0.0489
     19 H19        25.0866   21.7589    7.1004 H       1  lig         0.0634
     20 H20        22.8329   20.6455    7.7999 H       1  lig         0.0564
     21 H21        23.8968   19.8976    5.3249 H       1  lig         0.0555
     22 H22        21.9187   18.6890    6.0424 H       1  lig         0.0551
     23 H23        22.1245   18.1602    9.8192 H       1  lig         0.0433
     24 H24        23.6985   17.4269    9.6626 H       1  lig         0.0424
     25 H25        23.5070   19.1482    9.3520 H       1  lig         0.0357
     26 H26        21.0714   15.0627    8.4631 H       1  lig         0.4072
     27 C1         21.4134   15.5986    5.1655 C.1     1  lig        -0.1335
     28 C2         21.5979   16.1607    6.2965 C.1     1  lig        -0.1688
     29 C3         24.6094   23.5125    4.6414 C.2     1  lig        -0.2674
     30 C4         24.1379   22.5114    5.5568 C.2     1  lig        -0.0292
     31 C5         26.0639   23.4499    4.3387 C.2     1  lig         0.5673
     32 C6         22.6442   22.6583    5.9351 C.3     1  lig        -0.0559
     33 C7         26.9867   22.5023    5.0913 C.3     1  lig        -0.1823
     34 C8         21.8642   21.3250    6.1077 C.3     1  lig        -0.0728
     35 C9         26.2247   21.1792    5.4389 C.3     1  lig        -0.0705
     36 C10        20.5591   18.9117    7.4933 C.3     1  lig        -0.0740
     37 C11        24.9026   18.9843    6.8272 C.3     1  lig        -0.0723
     38 C12        20.3552   17.4456    7.9372 C.3     1  lig        -0.0690
     39 C13        24.0661   17.6840    6.9654 C.3     1  lig        -0.0643
     40 C14        24.8297   21.4095    6.0966 C.3     1  lig        -0.0353
     41 C15        22.7223   20.2241    6.7983 C.3     1  lig        -0.0466
     42 C16        24.0731   20.2101    6.3598 C.3     1  lig        -0.0538
     43 C17        22.0179   19.0096    7.0837 C.3     1  lig        -0.0659
     44 C18        21.6868   16.7219    7.6770 C.3     1  lig         0.2372
     45 C19        22.7334   17.8299    7.7251 C.3     1  lig        -0.0680
     46 C20        23.0300   18.1747    9.2311 C.3     1  lig        -0.0802
     47 O1         26.4640   24.2233    3.5377 O.2     1  lig        -0.5348
     48 O2         21.8660   15.6221    8.5751 O.3     1  lig        -0.5805
@<TRIPOS>BOND
     1    31    47    2
     2    31    33    1
     3    29    31    1
     4    33    35    1
     5     5    33    1
     6     6    33    1
     7    29    30    2
     8     2    29    1
     9    30    32    1
    10    30    40    1
    11    32    34    1
    12     3    32    1
    13     4    32    1
    14    35    40    1
    15    40    42    1
    16    19    40    1
    17     9    35    1
    18    10    35    1
    19    41    42    1
    20    37    42    1
    21    21    42    1
    22    34    41    1
    23    41    43    1
    24    20    41    1
    25     7    34    1
    26     8    34    1
    27    37    39    1
    28    13    37    1
    29    14    37    1
    30    39    45    1
    31    17    39    1
    32    18    39    1
    33    43    45    1
    34    45    46    1
    35    44    45    1
    36    36    43    1
    37    22    43    1
    38    23    46    1
    39    24    46    1
    40    25    46    1
    41    44    48    1
    42    38    44    1
    43    28    44    1
    44    26    48    1
    45    36    38    1
    46    15    38    1
    47    16    38    1
    48    11    36    1
    49    12    36    1
    50    27    28    3
    51     1    27    1
@<TRIPOS>SUBSTRUCTURE
     1 lig         1 TEMP              0 ****  ****    0 ROOT


########## Name:		ligand
########## HA_RMSDs:		13.8160
########## HA_RMSDh:		13.6944
########## HA_RMSDm:		7.3137
########## Cluster Size:	11
##########    Grid Score:          -23.777586
##########      Grid_vdw:          -23.643211
##########       Grid_es:           -0.134375
##########    Int_energy:            3.127308

@<TRIPOS>MOLECULE
ligand
 48 51 1 0 0
SMALL
No Charge or Current Charge


@<TRIPOS>ATOM
      1 H1         14.6923   20.8196   28.7706 H       1  lig         0.1670
      2 H2         23.2022   17.9301   31.8845 H       1  lig         0.1473
      3 H3         21.8388   19.6612   32.7298 H       1  lig         0.0559
      4 H4         21.1254   18.8829   34.1232 H       1  lig         0.0575
      5 H5         21.3185   14.4460   32.3181 H       1  lig         0.0688
      6 H6         21.2898   14.2352   30.5684 H       1  lig         0.0740
      7 H7         19.7390   20.3437   31.8700 H       1  lig         0.0477
      8 H8         19.6310   20.6481   33.5997 H       1  lig         0.0465
      9 H9         19.1030   15.0021   31.5613 H       1  lig         0.0495
     10 H10        19.7065   16.0651   30.2890 H       1  lig         0.0527
     11 H11        17.4658   21.8313   32.9225 H       1  lig         0.0459
     12 H12        17.1904   21.0118   34.4744 H       1  lig         0.0459
     13 H13        17.1387   16.2758   32.8621 H       1  lig         0.0438
     14 H14        17.3737   16.2260   31.1382 H       1  lig         0.0425
     15 H15        14.9520   21.2620   34.2988 H       1  lig         0.0681
     16 H16        15.1101   22.1991   32.8593 H       1  lig         0.0571
     17 H17        15.1500   17.1463   31.7845 H       1  lig         0.0423
     18 H18        16.1049   18.1794   30.7586 H       1  lig         0.0489
     19 H19        19.7466   16.4901   33.2632 H       1  lig         0.0634
     20 H20        18.4159   18.6379   33.9144 H       1  lig         0.0564
     21 H21        18.7121   18.1146   31.1839 H       1  lig         0.0555
     22 H22        17.2906   19.9953   31.7593 H       1  lig         0.0551
     23 H23        15.3285   19.1111   34.9144 H       1  lig         0.0433
     24 H24        14.7378   17.6470   34.1749 H       1  lig         0.0424
     25 H25        16.4403   17.7809   34.5984 H       1  lig         0.0357
     26 H26        13.2138   19.0066   32.3088 H       1  lig         0.4072
     27 C1         14.7831   20.6509   29.8216 C.1     1  lig        -0.1335
     28 C2         14.8603   20.4267   31.0758 C.1     1  lig        -0.1688
     29 C3         22.3158   17.3097   31.8221 C.2     1  lig        -0.2674
     30 C4         21.0296   17.6633   32.3540 C.2     1  lig        -0.0292
     31 C5         22.3977   15.9464   31.2340 C.2     1  lig         0.5673
     32 C6         20.9951   19.0451   33.0506 C.3     1  lig        -0.0559
     33 C7         21.2445   14.9616   31.3608 C.3     1  lig        -0.1823
     34 C8         19.6895   19.8637   32.8472 C.3     1  lig        -0.0728
     35 C9         19.8801   15.7286   31.3153 C.3     1  lig        -0.0705
     36 C10        16.9079   21.0371   33.4241 C.3     1  lig        -0.0740
     37 C11        17.2981   16.9038   31.9823 C.3     1  lig        -0.0723
     38 C12        15.3823   21.2485   33.2983 C.3     1  lig        -0.0690
     39 C13        16.0356   17.7821   31.7721 C.3     1  lig        -0.0643
     40 C14        19.8144   16.9553   32.2759 C.3     1  lig        -0.0353
     41 C15        18.4187   18.9640   32.8719 C.3     1  lig        -0.0466
     42 C16        18.5970   17.7249   32.2011 C.3     1  lig        -0.0538
     43 C17        17.1794   19.6794   32.8009 C.3     1  lig        -0.0659
     44 C18        14.8375   20.0408   32.5177 C.3     1  lig         0.2372
     45 C19        15.8532   18.9339   32.7794 C.3     1  lig        -0.0680
     46 C20        15.5850   18.3349   34.2092 C.3     1  lig        -0.0802
     47 O1         23.4286   15.6560   30.7314 O.2     1  lig        -0.5348
     48 O2         13.4765   19.7667   32.8657 O.3     1  lig        -0.5805
@<TRIPOS>BOND
     1    31    47    2
     2    31    33    1
     3    29    31    1
     4    33    35    1
     5     5    33    1
     6     6    33    1
     7    29    30    2
     8     2    29    1
     9    30    32    1
    10    30    40    1
    11    32    34    1
    12     3    32    1
    13     4    32    1
    14    35    40    1
    15    40    42    1
    16    19    40    1
    17     9    35    1
    18    10    35    1
    19    41    42    1
    20    37    42    1
    21    21    42    1
    22    34    41    1
    23    41    43    1
    24    20    41    1
    25     7    34    1
    26     8    34    1
    27    37    39    1
    28    13    37    1
    29    14    37    1
    30    39    45    1
    31    17    39    1
    32    18    39    1
    33    43    45    1
    34    45    46    1
    35    44    45    1
    36    36    43    1
    37    22    43    1
    38    23    46    1
    39    24    46    1
    40    25    46    1
    41    44    48    1
    42    38    44    1
    43    28    44    1
    44    26    48    1
    45    36    38    1
    46    15    38    1
    47    16    38    1
    48    11    36    1
    49    12    36    1
    50    27    28    3
    51     1    27    1
@<TRIPOS>SUBSTRUCTURE
     1 lig         1 TEMP              0 ****  ****    0 ROOT


########## Name:		ligand
########## HA_RMSDs:		14.5382
########## HA_RMSDh:		14.4895
########## HA_RMSDm:		10.2513
########## Cluster Size:	4
##########    Grid Score:          -23.255053
##########      Grid_vdw:          -21.674461
##########       Grid_es:           -1.580591
##########    Int_energy:            3.008523

@<TRIPOS>MOLECULE
ligand
 48 51 1 0 0
SMALL
No Charge or Current Charge


@<TRIPOS>ATOM
      1 H1         14.9273   15.6971   36.5697 H       1  lig         0.1670
      2 H2         15.7341   24.5256   32.8816 H       1  lig         0.1473
      3 H3         17.2454   23.2495   34.1691 H       1  lig         0.0559
      4 H4         18.3696   22.7136   32.9422 H       1  lig         0.0575
      5 H5         15.1862   22.7481   29.3580 H       1  lig         0.0688
      6 H6         13.4791   22.5174   29.7314 H       1  lig         0.0740
      7 H7         16.8890   21.0553   34.9895 H       1  lig         0.0477
      8 H8         18.6229   21.1468   34.7041 H       1  lig         0.0465
      9 H9         14.8968   20.4527   30.0196 H       1  lig         0.0495
     10 H10        13.9922   20.8902   31.4698 H       1  lig         0.0527
     11 H11        18.6107   18.9030   35.9337 H       1  lig         0.0459
     12 H12        19.8232   18.8211   34.6379 H       1  lig         0.0459
     13 H13        16.7474   18.6388   30.6960 H       1  lig         0.0438
     14 H14        15.0899   18.6710   31.2261 H       1  lig         0.0425
     15 H15        19.9797   16.5746   34.8191 H       1  lig         0.0681
     16 H16        18.9240   16.5517   36.1831 H       1  lig         0.0571
     17 H17        16.2374   16.5272   31.7707 H       1  lig         0.0423
     18 H18        15.5165   17.3428   33.1296 H       1  lig         0.0489
     19 H19        16.9170   21.2728   30.8977 H       1  lig         0.0634
     20 H20        18.3809   20.0014   32.6436 H       1  lig         0.0564
     21 H21        15.6163   19.9824   33.0600 H       1  lig         0.0555
     22 H22        16.9303   18.6153   34.5741 H       1  lig         0.0551
     23 H23        19.8038   17.0468   32.6071 H       1  lig         0.0433
     24 H24        18.6880   16.3915   31.4386 H       1  lig         0.0424
     25 H25        18.9483   18.1301   31.5115 H       1  lig         0.0357
     26 H26        17.5604   14.6512   33.2402 H       1  lig         0.4072
     27 C1         15.7197   15.8960   35.8813 C.1     1  lig        -0.1335
     28 C2         16.6912   16.1166   35.0832 C.1     1  lig        -0.1688
     29 C3         15.5643   23.6456   32.2724 C.2     1  lig        -0.2674
     30 C4         16.3170   22.4263   32.3669 C.2     1  lig        -0.0292
     31 C5         14.5524   23.6747   31.1832 C.2     1  lig         0.5673
     32 C6         17.4317   22.4567   33.4404 C.3     1  lig        -0.0559
     33 C7         14.4675   22.5563   30.1546 C.3     1  lig        -0.1823
     34 C8         17.6513   21.1264   34.2138 C.3     1  lig        -0.0728
     35 C9         14.8243   21.1868   30.8246 C.3     1  lig        -0.0705
     36 C10        18.8770   18.4173   34.9920 C.3     1  lig        -0.0740
     37 C11        16.1139   18.6864   31.5850 C.3     1  lig        -0.0723
     38 C12        18.9915   16.8850   35.1560 C.3     1  lig        -0.0690
     39 C13        16.3422   17.3974   32.4191 C.3     1  lig        -0.0643
     40 C14        16.1384   21.2190   31.6636 C.3     1  lig        -0.0353
     41 C15        17.5115   19.8783   33.2932 C.3     1  lig        -0.0466
     42 C16        16.4530   19.9919   32.3530 C.3     1  lig        -0.0538
     43 C17        17.8138   18.6305   33.9291 C.3     1  lig        -0.0659
     44 C18        17.9174   16.2674   34.2453 C.3     1  lig         0.2372
     45 C19        17.6877   17.3201   33.1662 C.3     1  lig        -0.0680
     46 C20        18.8580   17.2284   32.1189 C.3     1  lig        -0.0802
     47 O1         13.8752   24.6432   31.1257 O.2     1  lig        -0.5348
     48 O2         18.2975   14.9599   33.8042 O.3     1  lig        -0.5805
@<TRIPOS>BOND
     1    31    47    2
     2    31    33    1
     3    29    31    1
     4    33    35    1
     5     5    33    1
     6     6    33    1
     7    29    30    2
     8     2    29    1
     9    30    32    1
    10    30    40    1
    11    32    34    1
    12     3    32    1
    13     4    32    1
    14    35    40    1
    15    40    42    1
    16    19    40    1
    17     9    35    1
    18    10    35    1
    19    41    42    1
    20    37    42    1
    21    21    42    1
    22    34    41    1
    23    41    43    1
    24    20    41    1
    25     7    34    1
    26     8    34    1
    27    37    39    1
    28    13    37    1
    29    14    37    1
    30    39    45    1
    31    17    39    1
    32    18    39    1
    33    43    45    1
    34    45    46    1
    35    44    45    1
    36    36    43    1
    37    22    43    1
    38    23    46    1
    39    24    46    1
    40    25    46    1
    41    44    48    1
    42    38    44    1
    43    28    44    1
    44    26    48    1
    45    36    38    1
    46    15    38    1
    47    16    38    1
    48    11    36    1
    49    12    36    1
    50    27    28    3
    51     1    27    1
@<TRIPOS>SUBSTRUCTURE
     1 lig         1 TEMP              0 ****  ****    0 ROOT


########## Name:		ligand
########## HA_RMSDs:		14.6327
########## HA_RMSDh:		14.3879
########## HA_RMSDm:		9.8856
########## Cluster Size:	8
##########    Grid Score:          -22.922750
##########      Grid_vdw:          -22.748964
##########       Grid_es:           -0.173786
##########    Int_energy:            3.003588

@<TRIPOS>MOLECULE
ligand
 48 51 1 0 0
SMALL
No Charge or Current Charge


@<TRIPOS>ATOM
      1 H1         23.8849   12.4460   34.5774 H       1  lig         0.1670
      2 H2         17.6383   19.7811   34.5489 H       1  lig         0.1473
      3 H3         19.9961   19.7765   34.4439 H       1  lig         0.0559
      4 H4         20.2617   20.0836   32.7435 H       1  lig         0.0575
      5 H5         16.1755   18.0560   31.2687 H       1  lig         0.0688
      6 H6         15.4514   16.7845   32.2513 H       1  lig         0.0740
      7 H7         21.3999   17.8677   34.4544 H       1  lig         0.0477
      8 H8         22.2649   19.0499   33.4796 H       1  lig         0.0465
      9 H9         17.5815   16.1121   31.0825 H       1  lig         0.0495
     10 H10        17.6342   15.8712   32.8295 H       1  lig         0.0527
     11 H11        24.1471   17.3252   33.6502 H       1  lig         0.0459
     12 H12        24.1900   18.0369   32.0231 H       1  lig         0.0459
     13 H13        20.0760   15.9111   30.1286 H       1  lig         0.0438
     14 H14        19.3363   14.8734   31.3142 H       1  lig         0.0425
     15 H15        25.5682   16.4153   31.2647 H       1  lig         0.0681
     16 H16        25.7174   15.7241   32.8381 H       1  lig         0.0571
     17 H17        21.4891   13.9677   30.4455 H       1  lig         0.0423
     18 H18        21.4051   14.1344   32.1766 H       1  lig         0.0489
     19 H19        18.9209   18.0403   31.1963 H       1  lig         0.0634
     20 H20        21.5137   18.0103   31.4869 H       1  lig         0.0564
     21 H21        20.0457   16.2223   33.0570 H       1  lig         0.0555
     22 H22        22.4603   16.0219   33.1907 H       1  lig         0.0551
     23 H23        23.9236   16.6578   29.7208 H       1  lig         0.0433
     24 H24        22.8918   15.4357   29.0270 H       1  lig         0.0424
     25 H25        22.1867   16.9362   29.6163 H       1  lig         0.0357
     26 H26        24.1533   13.3772   30.3563 H       1  lig         0.4072
     27 C1         23.8813   13.1354   33.7612 C.1     1  lig        -0.1335
     28 C2         23.9152   13.9540   32.7824 C.1     1  lig        -0.1688
     29 C3         17.6383   18.9955   33.8024 C.2     1  lig        -0.2674
     30 C4         18.7997   18.5440   33.0885 C.2     1  lig        -0.0292
     31 C5         16.3591   18.3651   33.3811 C.2     1  lig         0.5673
     32 C6         20.1025   19.2860   33.4731 C.3     1  lig        -0.0559
     33 C7         16.2925   17.4500   32.1670 C.3     1  lig        -0.1823
     34 C8         21.3854   18.4092   33.5087 C.3     1  lig        -0.0728
     35 C9         17.6212   16.6309   32.0425 C.3     1  lig        -0.0705
     36 C10        24.0186   17.1209   32.5847 C.3     1  lig        -0.0740
     37 C11        20.1745   15.5436   31.1529 C.3     1  lig        -0.0723
     38 C12        24.9870   16.0199   32.0968 C.3     1  lig        -0.0690
     39 C13        21.4767   14.7042   31.2493 C.3     1  lig        -0.0643
     40 C14        18.9105   17.5015   32.1478 C.3     1  lig        -0.0353
     41 C15        21.4153   17.3597   32.3587 C.3     1  lig        -0.0466
     42 C16        20.1497   16.7646   32.1109 C.3     1  lig        -0.0538
     43 C17        22.6266   16.5989   32.2762 C.3     1  lig        -0.0659
     44 C18        24.1114   14.8542   31.6079 C.3     1  lig         0.2372
     45 C19        22.7894   15.5108   31.2251 C.3     1  lig        -0.0680
     46 C20        22.9558   16.1886   29.8152 C.3     1  lig        -0.0802
     47 O1         15.3976   18.6729   33.9980 O.2     1  lig        -0.5348
     48 O2         24.7752   14.0944   30.5928 O.3     1  lig        -0.5805
@<TRIPOS>BOND
     1    31    47    2
     2    31    33    1
     3    29    31    1
     4    33    35    1
     5     5    33    1
     6     6    33    1
     7    29    30    2
     8     2    29    1
     9    30    32    1
    10    30    40    1
    11    32    34    1
    12     3    32    1
    13     4    32    1
    14    35    40    1
    15    40    42    1
    16    19    40    1
    17     9    35    1
    18    10    35    1
    19    41    42    1
    20    37    42    1
    21    21    42    1
    22    34    41    1
    23    41    43    1
    24    20    41    1
    25     7    34    1
    26     8    34    1
    27    37    39    1
    28    13    37    1
    29    14    37    1
    30    39    45    1
    31    17    39    1
    32    18    39    1
    33    43    45    1
    34    45    46    1
    35    44    45    1
    36    36    43    1
    37    22    43    1
    38    23    46    1
    39    24    46    1
    40    25    46    1
    41    44    48    1
    42    38    44    1
    43    28    44    1
    44    26    48    1
    45    36    38    1
    46    15    38    1
    47    16    38    1
    48    11    36    1
    49    12    36    1
    50    27    28    3
    51     1    27    1
@<TRIPOS>SUBSTRUCTURE
     1 lig         1 TEMP              0 ****  ****    0 ROOT


########## Name:		ligand
########## HA_RMSDs:		14.9103
########## HA_RMSDh:		14.8545
########## HA_RMSDm:		9.8752
########## Cluster Size:	8
##########    Grid Score:          -22.613338
##########      Grid_vdw:          -22.198729
##########       Grid_es:           -0.414609
##########    Int_energy:            3.255446

@<TRIPOS>MOLECULE
ligand
 48 51 1 0 0
SMALL
No Charge or Current Charge


@<TRIPOS>ATOM
      1 H1         14.5457   17.2958   35.7664 H       1  lig         0.1670
      2 H2         20.7619   23.8870   34.6932 H       1  lig         0.1473
      3 H3         20.6671   21.7313   33.7370 H       1  lig         0.0559
      4 H4         20.1461   22.1032   32.1101 H       1  lig         0.0575
      5 H5         17.7393   26.0757   33.2971 H       1  lig         0.0688
      6 H6         17.0812   26.2193   34.9260 H       1  lig         0.0740
      7 H7         18.9558   20.1244   34.0597 H       1  lig         0.0477
      8 H8         19.5359   19.8334   32.4242 H       1  lig         0.0465
      9 H9         15.9058   24.5273   33.4731 H       1  lig         0.0495
     10 H10        16.5012   23.8545   34.9915 H       1  lig         0.0527
     11 H11        18.0534   17.7573   32.6208 H       1  lig         0.0459
     12 H12        17.9289   18.3749   30.9598 H       1  lig         0.0459
     13 H13        15.2410   22.4986   31.8559 H       1  lig         0.0438
     14 H14        14.8845   22.6253   33.5548 H       1  lig         0.0425
     15 H15        16.1162   17.0948   30.5361 H       1  lig         0.0681
     16 H16        16.2306   16.3199   32.0730 H       1  lig         0.0571
     17 H17        13.6410   20.7749   32.4415 H       1  lig         0.0423
     18 H18        14.5926   20.2984   33.8195 H       1  lig         0.0489
     19 H19        17.6428   23.5473   32.2292 H       1  lig         0.0634
     20 H20        17.7046   21.0366   31.5216 H       1  lig         0.0564
     21 H21        16.8746   21.5932   34.1328 H       1  lig         0.0555
     22 H22        16.7160   19.2739   33.4369 H       1  lig         0.0551
     23 H23        15.6448   19.1784   29.7723 H       1  lig         0.0433
     24 H24        14.2590   20.1780   30.1185 H       1  lig         0.0424
     25 H25        15.8740   20.8706   30.2075 H       1  lig         0.0357
     26 H26        13.5955   16.7628   31.5443 H       1  lig         0.4072
     27 C1         14.5875   17.4861   34.7160 C.1     1  lig        -0.1335
     28 C2         14.6688   17.7352   33.4667 C.1     1  lig        -0.1688
     29 C3         19.7199   24.0142   34.4239 C.2     1  lig        -0.2674
     30 C4         18.9683   23.1041   33.6060 C.2     1  lig        -0.0292
     31 C5         18.9890   25.2450   34.8268 C.2     1  lig         0.5673
     32 C6         19.7806   21.8812   33.1156 C.3     1  lig        -0.0559
     33 C7         17.6167   25.5707   34.2552 C.3     1  lig        -0.1823
     34 C8         18.9975   20.5401   33.0531 C.3     1  lig        -0.0728
     35 C9         16.8096   24.2498   34.0192 C.3     1  lig        -0.0705
     36 C10        17.3809   18.2021   31.8837 C.3     1  lig        -0.0740
     37 C11        15.3885   22.0059   32.8199 C.3     1  lig        -0.0723
     38 C12        16.1621   17.2935   31.6061 C.3     1  lig        -0.0690
     39 C13        14.6663   20.6323   32.7837 C.3     1  lig        -0.0643
     40 C14        17.6067   23.1533   33.2486 C.3     1  lig        -0.0353
     41 C15        17.5341   20.7335   32.5571 C.3     1  lig        -0.0466
     42 C16        16.9146   21.8989   33.0817 C.3     1  lig        -0.0538
     43 C17        16.8002   19.5168   32.3735 C.3     1  lig        -0.0659
     44 C18        14.9184   18.0881   32.0379 C.3     1  lig         0.2372
     45 C19        15.3462   19.5474   31.9263 C.3     1  lig        -0.0680
     46 C20        15.2902   19.9722   30.4125 C.3     1  lig        -0.0802
     47 O1         19.5648   25.9795   35.5539 O.2     1  lig        -0.5348
     48 O2         13.7628   17.6929   31.2916 O.3     1  lig        -0.5805
@<TRIPOS>BOND
     1    31    47    2
     2    31    33    1
     3    29    31    1
     4    33    35    1
     5     5    33    1
     6     6    33    1
     7    29    30    2
     8     2    29    1
     9    30    32    1
    10    30    40    1
    11    32    34    1
    12     3    32    1
    13     4    32    1
    14    35    40    1
    15    40    42    1
    16    19    40    1
    17     9    35    1
    18    10    35    1
    19    41    42    1
    20    37    42    1
    21    21    42    1
    22    34    41    1
    23    41    43    1
    24    20    41    1
    25     7    34    1
    26     8    34    1
    27    37    39    1
    28    13    37    1
    29    14    37    1
    30    39    45    1
    31    17    39    1
    32    18    39    1
    33    43    45    1
    34    45    46    1
    35    44    45    1
    36    36    43    1
    37    22    43    1
    38    23    46    1
    39    24    46    1
    40    25    46    1
    41    44    48    1
    42    38    44    1
    43    28    44    1
    44    26    48    1
    45    36    38    1
    46    15    38    1
    47    16    38    1
    48    11    36    1
    49    12    36    1
    50    27    28    3
    51     1    27    1
@<TRIPOS>SUBSTRUCTURE
     1 lig         1 TEMP              0 ****  ****    0 ROOT


########## Name:		ligand
########## HA_RMSDs:		15.3557
########## HA_RMSDh:		15.2425
########## HA_RMSDm:		10.6326
########## Cluster Size:	2
##########    Grid Score:          -22.115290
##########      Grid_vdw:          -20.226702
##########       Grid_es:           -1.888587
##########    Int_energy:            3.262103

@<TRIPOS>MOLECULE
ligand
 48 51 1 0 0
SMALL
No Charge or Current Charge


@<TRIPOS>ATOM
      1 H1         20.1694   14.4661   32.6135 H       1  lig         0.1670
      2 H2         14.4647   21.2343   30.4235 H       1  lig         0.1473
      3 H3         13.9932   19.0707   31.2400 H       1  lig         0.0559
      4 H4         13.5948   19.4153   32.9070 H       1  lig         0.0575
      5 H5         16.3620   23.3156   33.2420 H       1  lig         0.0688
      6 H6         17.7782   23.4483   32.2011 H       1  lig         0.0740
      7 H7         15.5810   17.4116   31.8238 H       1  lig         0.0477
      8 H8         14.2241   17.1290   32.9079 H       1  lig         0.0465
      9 H9         17.9786   21.7101   34.0161 H       1  lig         0.0495
     10 H10        18.2496   21.0665   32.3958 H       1  lig         0.0527
     11 H11        15.5398   15.0075   33.4690 H       1  lig         0.0459
     12 H12        14.7918   15.6103   34.9634 H       1  lig         0.0459
     13 H13        17.6499   19.6509   35.6966 H       1  lig         0.0438
     14 H14        18.8455   19.7768   34.4380 H       1  lig         0.0425
     15 H15        16.0834   14.2698   36.2436 H       1  lig         0.0681
     16 H16        16.7714   13.5088   34.8568 H       1  lig         0.0571
     17 H17        19.2777   17.8803   35.9955 H       1  lig         0.0423
     18 H18        19.1765   17.4434   34.3131 H       1  lig         0.0489
     19 H19        15.8245   20.7787   34.1463 H       1  lig         0.0634
     20 H20        15.3410   18.2669   34.6611 H       1  lig         0.0564
     21 H21        17.4277   18.8130   32.8821 H       1  lig         0.0555
     22 H22        17.1427   16.4855   33.5064 H       1  lig         0.0551
     23 H23        16.1356   16.3323   37.1873 H       1  lig         0.0433
     24 H24        17.5215   17.2889   37.6389 H       1  lig         0.0424
     25 H25        16.2090   18.0337   36.7342 H       1  lig         0.0357
     26 H26        19.3130   15.3273   36.9470 H       1  lig         0.4072
     27 C1         19.5852   14.6444   33.4901 C.1     1  lig        -0.1335
     28 C2         18.8652   14.8818   34.5170 C.1     1  lig        -0.1688
     29 C3         15.2145   21.3263   31.2005 C.2     1  lig        -0.2674
     30 C4         15.4049   20.3872   32.2702 C.2     1  lig        -0.0292
     31 C5         16.0776   22.5353   31.2667 C.2     1  lig         0.5673
     32 C6         14.4269   19.1881   32.2362 C.3     1  lig        -0.0559
     33 C7         16.9555   22.8130   32.4784 C.3     1  lig        -0.1823
     34 C8         15.0289   17.8220   32.6691 C.3     1  lig        -0.0728
     35 C9         17.4877   21.4653   33.0720 C.3     1  lig        -0.0705
     36 C10        15.7378   15.4258   34.4587 C.3     1  lig        -0.0740
     37 C11        18.0167   19.1693   34.7870 C.3     1  lig        -0.0723
     38 C12        16.6089   14.4767   35.3122 C.3     1  lig        -0.0690
     39 C13        18.5799   17.7730   35.1648 C.3     1  lig        -0.0643
     40 C14        16.3790   20.3902   33.2877 C.3     1  lig        -0.0353
     41 C15        16.0207   17.9651   33.8611 C.3     1  lig        -0.0466
     42 C16        16.8510   19.1132   33.7637 C.3     1  lig        -0.0538
     43 C17        16.5205   16.7242   34.3741 C.3     1  lig        -0.0659
     44 C18        17.9135   15.2335   35.6120 C.3     1  lig         0.2372
     45 C19        17.5259   16.7052   35.5159 C.3     1  lig        -0.0680
     46 C20        16.7919   17.1183   36.8447 C.3     1  lig        -0.0802
     47 O1         15.9853   23.2926   30.3623 O.2     1  lig        -0.5348
     48 O2         18.4979   14.7966   36.8433 O.3     1  lig        -0.5805
@<TRIPOS>BOND
     1    31    47    2
     2    31    33    1
     3    29    31    1
     4    33    35    1
     5     5    33    1
     6     6    33    1
     7    29    30    2
     8     2    29    1
     9    30    32    1
    10    30    40    1
    11    32    34    1
    12     3    32    1
    13     4    32    1
    14    35    40    1
    15    40    42    1
    16    19    40    1
    17     9    35    1
    18    10    35    1
    19    41    42    1
    20    37    42    1
    21    21    42    1
    22    34    41    1
    23    41    43    1
    24    20    41    1
    25     7    34    1
    26     8    34    1
    27    37    39    1
    28    13    37    1
    29    14    37    1
    30    39    45    1
    31    17    39    1
    32    18    39    1
    33    43    45    1
    34    45    46    1
    35    44    45    1
    36    36    43    1
    37    22    43    1
    38    23    46    1
    39    24    46    1
    40    25    46    1
    41    44    48    1
    42    38    44    1
    43    28    44    1
    44    26    48    1
    45    36    38    1
    46    15    38    1
    47    16    38    1
    48    11    36    1
    49    12    36    1
    50    27    28    3
    51     1    27    1
@<TRIPOS>SUBSTRUCTURE
     1 lig         1 TEMP              0 ****  ****    0 ROOT


########## Name:		ligand
########## HA_RMSDs:		13.8128
########## HA_RMSDh:		13.6965
########## HA_RMSDm:		8.9216
########## Cluster Size:	8
##########    Grid Score:          -21.957626
##########      Grid_vdw:          -22.268211
##########       Grid_es:            0.310585
##########    Int_energy:            3.014138

@<TRIPOS>MOLECULE
ligand
 48 51 1 0 0
SMALL
No Charge or Current Charge


@<TRIPOS>ATOM
      1 H1         15.2243   17.8148   30.4649 H       1  lig         0.1670
      2 H2         24.7299   18.9467   30.1328 H       1  lig         0.1473
      3 H3         23.0810   20.0885   31.3768 H       1  lig         0.0559
      4 H4         23.2978   19.3800   32.9602 H       1  lig         0.0575
      5 H5         24.9080   15.1590   31.3563 H       1  lig         0.0688
      6 H6         24.4151   14.6108   29.7552 H       1  lig         0.0740
      7 H7         20.7518   19.6539   31.3551 H       1  lig         0.0477
      8 H8         21.0821   20.2247   32.9865 H       1  lig         0.0465
      9 H9         22.5743   14.5849   31.4776 H       1  lig         0.0495
     10 H10        22.1753   15.5250   30.0389 H       1  lig         0.0527
     11 H11        18.5284   20.2443   33.1428 H       1  lig         0.0459
     12 H12        19.1778   19.7120   34.7083 H       1  lig         0.0459
     13 H13        20.7850   15.1625   33.3847 H       1  lig         0.0438
     14 H14        20.4449   14.8717   31.7027 H       1  lig         0.0425
     15 H15        17.1534   18.9726   35.3856 H       1  lig         0.0681
     16 H16        16.3891   19.5831   33.9647 H       1  lig         0.0571
     17 H17        18.3911   14.8975   33.1136 H       1  lig         0.0423
     18 H18        18.3763   16.0057   31.7708 H       1  lig         0.0489
     19 H19        22.9752   16.5124   32.7616 H       1  lig         0.0634
     20 H20        21.0995   17.9991   33.8006 H       1  lig         0.0564
     21 H21        20.7018   17.1122   31.1791 H       1  lig         0.0555
     22 H22        18.8490   18.3089   32.1907 H       1  lig         0.0551
     23 H23        18.6501   17.3409   35.8798 H       1  lig         0.0433
     24 H24        18.5933   15.6484   35.4652 H       1  lig         0.0424
     25 H25        20.0782   16.5566   35.2082 H       1  lig         0.0357
     26 H26        16.5582   16.7772   35.5557 H       1  lig         0.4072
     27 C1         15.7784   17.6818   31.3686 C.1     1  lig        -0.1335
     28 C2         16.4183   17.5497   32.4651 C.1     1  lig        -0.1688
     29 C3         24.2604   18.0164   30.4301 C.2     1  lig        -0.2674
     30 C4         23.2056   17.9041   31.3981 C.2     1  lig        -0.0292
     31 C5         24.7630   16.7221   29.8978 C.2     1  lig         0.5673
     32 C6         22.7687   19.2561   32.0122 C.3     1  lig        -0.0559
     33 C7         24.3008   15.3953   30.4826 C.3     1  lig        -0.1823
     34 C8         21.2469   19.4021   32.2928 C.3     1  lig        -0.0728
     35 C9         22.8050   15.5027   30.9331 C.3     1  lig        -0.0705
     36 C10        18.5927   19.4080   33.8429 C.3     1  lig        -0.0740
     37 C11        20.3445   15.6108   32.4909 C.3     1  lig        -0.0723
     38 C12        17.1922   18.9391   34.2976 C.3     1  lig        -0.0690
     39 C13        18.8287   15.8263   32.7470 C.3     1  lig        -0.0643
     40 C14        22.4989   16.7566   31.8081 C.3     1  lig        -0.0353
     41 C15        20.6153   18.0820   32.8250 C.3     1  lig        -0.0466
     42 C16        21.1141   16.9213   32.1758 C.3     1  lig        -0.0538
     43 C17        19.2384   18.1901   33.2061 C.3     1  lig        -0.0659
     44 C18        17.0426   17.4852   33.8196 C.3     1  lig         0.2372
     45 C19        18.4754   16.9747   33.7117 C.3     1  lig        -0.0680
     46 C20        18.9903   16.6169   35.1546 C.3     1  lig        -0.0802
     47 O1         25.5871   16.7906   29.0516 O.2     1  lig        -0.5348
     48 O2         16.1541   16.7478   34.6653 O.3     1  lig        -0.5805
@<TRIPOS>BOND
     1    31    47    2
     2    31    33    1
     3    29    31    1
     4    33    35    1
     5     5    33    1
     6     6    33    1
     7    29    30    2
     8     2    29    1
     9    30    32    1
    10    30    40    1
    11    32    34    1
    12     3    32    1
    13     4    32    1
    14    35    40    1
    15    40    42    1
    16    19    40    1
    17     9    35    1
    18    10    35    1
    19    41    42    1
    20    37    42    1
    21    21    42    1
    22    34    41    1
    23    41    43    1
    24    20    41    1
    25     7    34    1
    26     8    34    1
    27    37    39    1
    28    13    37    1
    29    14    37    1
    30    39    45    1
    31    17    39    1
    32    18    39    1
    33    43    45    1
    34    45    46    1
    35    44    45    1
    36    36    43    1
    37    22    43    1
    38    23    46    1
    39    24    46    1
    40    25    46    1
    41    44    48    1
    42    38    44    1
    43    28    44    1
    44    26    48    1
    45    36    38    1
    46    15    38    1
    47    16    38    1
    48    11    36    1
    49    12    36    1
    50    27    28    3
    51     1    27    1
@<TRIPOS>SUBSTRUCTURE
     1 lig         1 TEMP              0 ****  ****    0 ROOT


########## Name:		ligand
########## HA_RMSDs:		15.3247
########## HA_RMSDh:		14.8436
########## HA_RMSDm:		9.6633
########## Cluster Size:	2
##########    Grid Score:          -21.754316
##########      Grid_vdw:          -21.990639
##########       Grid_es:            0.236323
##########    Int_energy:            3.091950

@<TRIPOS>MOLECULE
ligand
 48 51 1 0 0
SMALL
No Charge or Current Charge


@<TRIPOS>ATOM
      1 H1         26.2110   16.4991   34.3760 H       1  lig         0.1670
      2 H2         16.8147   18.2359   34.6854 H       1  lig         0.1473
      3 H3         18.4269   19.0914   33.1890 H       1  lig         0.0559
      4 H4         18.1429   18.0984   31.7785 H       1  lig         0.0575
      5 H5         16.5515   14.2882   34.2142 H       1  lig         0.0688
      6 H6         17.0991   14.0463   35.8720 H       1  lig         0.0740
      7 H7         20.7506   18.6287   33.2109 H       1  lig         0.0477
      8 H8         20.3645   18.8842   31.5133 H       1  lig         0.0465
      9 H9         18.8729   13.6613   34.1223 H       1  lig         0.0495
     10 H10        19.3359   14.8509   35.3402 H       1  lig         0.0527
     11 H11        22.9106   18.8295   31.2660 H       1  lig         0.0459
     12 H12        22.1967   18.0204   29.8548 H       1  lig         0.0459
     13 H13        20.5944   13.8344   32.0780 H       1  lig         0.0438
     14 H14        20.9950   13.8631   33.7716 H       1  lig         0.0425
     15 H15        24.1863   17.1306   29.2600 H       1  lig         0.0681
     16 H16        25.0102   17.9871   30.5104 H       1  lig         0.0571
     17 H17        22.9939   13.5844   32.3100 H       1  lig         0.0423
     18 H18        23.0711   14.9274   33.4154 H       1  lig         0.0489
     19 H19        18.4434   15.3159   32.5090 H       1  lig         0.0634
     20 H20        20.2934   16.5450   31.1400 H       1  lig         0.0564
     21 H21        20.7812   16.1664   33.8668 H       1  lig         0.0555
     22 H22        22.6065   17.1165   32.5807 H       1  lig         0.0551
     23 H23        22.6552   15.4609   29.1394 H       1  lig         0.0433
     24 H24        22.7104   13.8775   29.8670 H       1  lig         0.0424
     25 H25        21.2457   14.8435   29.9982 H       1  lig         0.0357
     26 H26        24.7078   14.8605   29.5296 H       1  lig         0.4072
     27 C1         25.6573   16.4120   33.4665 C.1     1  lig        -0.1335
     28 C2         25.0171   16.2770   32.3705 C.1     1  lig        -0.1688
     29 C3         17.2631   17.2580   34.5546 C.2     1  lig        -0.2674
     30 C4         18.2792   16.9454   33.5892 C.2     1  lig        -0.0292
     31 C5         16.7678   16.0976   35.3416 C.2     1  lig         0.5673
     32 C6         18.7063   18.1480   32.7134 C.3     1  lig        -0.0559
     33 C7         17.1938   14.6760   35.0047 C.3     1  lig        -0.1823
     34 C8         20.2178   18.2116   32.3566 C.3     1  lig        -0.0728
     35 C9         18.6724   14.6698   34.4895 C.3     1  lig        -0.0705
     36 C10        22.8111   17.8765   30.7411 C.3     1  lig        -0.0740
     37 C11        21.0731   14.4368   32.8537 C.3     1  lig        -0.0723
     38 C12        24.1884   17.3055   30.3351 C.3     1  lig        -0.0690
     39 C13        22.5801   14.5734   32.5079 C.3     1  lig        -0.0643
     40 C14        18.9580   15.7288   33.3811 C.3     1  lig        -0.0353
     41 C15        20.8151   16.8036   32.0641 C.3     1  lig        -0.0466
     42 C16        20.3295   15.7965   32.9400 C.3     1  lig        -0.0538
     43 C17        22.1776   16.8134   31.6210 C.3     1  lig        -0.0659
     44 C18        24.3412   15.9668   31.0761 C.3     1  lig         0.2372
     45 C19        22.9084   15.5110   31.3299 C.3     1  lig        -0.0680
     46 C20        22.3354   14.8941   30.0009 C.3     1  lig        -0.0802
     47 O1         15.9771   16.3401   36.1877 O.2     1  lig        -0.5348
     48 O2         25.1893   15.0666   30.3558 O.3     1  lig        -0.5805
@<TRIPOS>BOND
     1    31    47    2
     2    31    33    1
     3    29    31    1
     4    33    35    1
     5     5    33    1
     6     6    33    1
     7    29    30    2
     8     2    29    1
     9    30    32    1
    10    30    40    1
    11    32    34    1
    12     3    32    1
    13     4    32    1
    14    35    40    1
    15    40    42    1
    16    19    40    1
    17     9    35    1
    18    10    35    1
    19    41    42    1
    20    37    42    1
    21    21    42    1
    22    34    41    1
    23    41    43    1
    24    20    41    1
    25     7    34    1
    26     8    34    1
    27    37    39    1
    28    13    37    1
    29    14    37    1
    30    39    45    1
    31    17    39    1
    32    18    39    1
    33    43    45    1
    34    45    46    1
    35    44    45    1
    36    36    43    1
    37    22    43    1
    38    23    46    1
    39    24    46    1
    40    25    46    1
    41    44    48    1
    42    38    44    1
    43    28    44    1
    44    26    48    1
    45    36    38    1
    46    15    38    1
    47    16    38    1
    48    11    36    1
    49    12    36    1
    50    27    28    3
    51     1    27    1
@<TRIPOS>SUBSTRUCTURE
     1 lig         1 TEMP              0 ****  ****    0 ROOT


########## Name:		ligand
########## HA_RMSDs:		16.3802
########## HA_RMSDh:		16.2362
########## HA_RMSDm:		13.5298
########## Cluster Size:	3
##########    Grid Score:          -20.899446
##########      Grid_vdw:          -18.725330
##########       Grid_es:           -2.174115
##########    Int_energy:            3.004237

@<TRIPOS>MOLECULE
ligand
 48 51 1 0 0
SMALL
No Charge or Current Charge


@<TRIPOS>ATOM
      1 H1          3.7114   17.8026   13.6438 H       1  lig         0.1670
      2 H2          5.3503   23.1161    5.7858 H       1  lig         0.1473
      3 H3          3.8756   23.4660    7.5949 H       1  lig         0.0559
      4 H4          4.7419   24.6773    8.5107 H       1  lig         0.0575
      5 H5          9.1066   23.2798    7.1044 H       1  lig         0.0688
      6 H6          9.3533   21.5995    6.6328 H       1  lig         0.0740
      7 H7          3.5978   22.0518    9.4757 H       1  lig         0.0477
      8 H8          3.2839   23.6714   10.0875 H       1  lig         0.0465
      9 H9          8.9718   21.9435    9.1009 H       1  lig         0.0495
     10 H10         7.8429   20.8019    8.3693 H       1  lig         0.0527
     11 H11         2.5217   22.3835   12.1627 H       1  lig         0.0459
     12 H12         3.3468   23.8629   12.6977 H       1  lig         0.0459
     13 H13         8.0459   22.6081   11.5245 H       1  lig         0.0438
     14 H14         8.0864   21.0099   10.8364 H       1  lig         0.0425
     15 H15         3.5057   23.1013   14.8187 H       1  lig         0.0681
     16 H16         2.5837   21.6921   14.4446 H       1  lig         0.0571
     17 H17         7.5675   21.0001   13.2736 H       1  lig         0.0423
     18 H18         6.4001   20.1884   12.2686 H       1  lig         0.0489
     19 H19         7.3595   23.6515    9.1905 H       1  lig         0.0634
     20 H20         5.4729   23.7951   10.9871 H       1  lig         0.0564
     21 H21         5.9879   21.2734    9.8948 H       1  lig         0.0555
     22 H22         4.3818   21.3383   11.7127 H       1  lig         0.0551
     23 H23         5.5417   23.9337   14.2631 H       1  lig         0.0433
     24 H24         7.1023   23.1655   14.3823 H       1  lig         0.0424
     25 H25         6.6569   24.0030   12.9004 H       1  lig         0.0357
     26 H26         4.4798   21.4679   16.1661 H       1  lig         0.4072
     27 C1          4.0388   18.8139   13.7519 C.1     1  lig        -0.1335
     28 C2          4.4068   20.0256   13.9118 C.1     1  lig        -0.1688
     29 C3          6.1207   22.8689    6.5068 C.2     1  lig        -0.2674
     30 C4          5.9932   23.0276    7.9283 C.2     1  lig        -0.0292
     31 C5          7.4584   22.4131    6.0443 C.2     1  lig         0.5673
     32 C6          4.6267   23.5989    8.3776 C.3     1  lig        -0.0559
     33 C7          8.6315   22.3037    7.0076 C.3     1  lig        -0.1823
     34 C8          4.0597   23.0129    9.7009 C.3     1  lig        -0.0728
     35 C9          8.1226   21.8582    8.4199 C.3     1  lig        -0.0705
     36 C10         3.3932   22.7759   12.6920 C.3     1  lig        -0.0740
     37 C11         7.4168   21.7594   11.2456 C.3     1  lig        -0.0723
     38 C12         3.4614   22.2482   14.1428 C.3     1  lig        -0.0690
     39 C13         6.7835   21.1739   12.5362 C.3     1  lig        -0.0643
     40 C14         6.9091   22.6864    8.9426 C.3     1  lig        -0.0353
     41 C15         5.1720   22.7692   10.7631 C.3     1  lig        -0.0466
     42 C16         6.3720   22.2503   10.2081 C.3     1  lig        -0.0538
     43 C17         4.6921   22.3346   12.0412 C.3     1  lig        -0.0659
     44 C18         4.7622   21.4354   14.2506 C.3     1  lig         0.2372
     45 C19         5.6636   22.0220   13.1696 C.3     1  lig        -0.0680
     46 C20         6.2730   23.3711   13.7024 C.3     1  lig        -0.0802
     47 O1          7.5690   22.2129    4.8835 O.2     1  lig        -0.5348
     48 O2          5.2691   21.4388   15.5890 O.3     1  lig        -0.5805
@<TRIPOS>BOND
     1    31    47    2
     2    31    33    1
     3    29    31    1
     4    33    35    1
     5     5    33    1
     6     6    33    1
     7    29    30    2
     8     2    29    1
     9    30    32    1
    10    30    40    1
    11    32    34    1
    12     3    32    1
    13     4    32    1
    14    35    40    1
    15    40    42    1
    16    19    40    1
    17     9    35    1
    18    10    35    1
    19    41    42    1
    20    37    42    1
    21    21    42    1
    22    34    41    1
    23    41    43    1
    24    20    41    1
    25     7    34    1
    26     8    34    1
    27    37    39    1
    28    13    37    1
    29    14    37    1
    30    39    45    1
    31    17    39    1
    32    18    39    1
    33    43    45    1
    34    45    46    1
    35    44    45    1
    36    36    43    1
    37    22    43    1
    38    23    46    1
    39    24    46    1
    40    25    46    1
    41    44    48    1
    42    38    44    1
    43    28    44    1
    44    26    48    1
    45    36    38    1
    46    15    38    1
    47    16    38    1
    48    11    36    1
    49    12    36    1
    50    27    28    3
    51     1    27    1
@<TRIPOS>SUBSTRUCTURE
     1 lig         1 TEMP              0 ****  ****    0 ROOT


########## Name:		ligand
########## HA_RMSDs:		15.0258
########## HA_RMSDh:		14.8073
########## HA_RMSDm:		8.7081
########## Cluster Size:	2
##########    Grid Score:          -20.870600
##########      Grid_vdw:          -20.463369
##########       Grid_es:           -0.407230
##########    Int_energy:            3.285394

@<TRIPOS>MOLECULE
ligand
 48 51 1 0 0
SMALL
No Charge or Current Charge


@<TRIPOS>ATOM
      1 H1         20.3975   19.1077   31.9621 H       1  lig         0.1670
      2 H2         14.8172   26.2636   31.2014 H       1  lig         0.1473
      3 H3         14.7452   24.1832   30.0892 H       1  lig         0.0559
      4 H4         13.4416   23.3874   30.9400 H       1  lig         0.0575
      5 H5         14.1200   25.7007   35.0837 H       1  lig         0.0688
      6 H6         15.7298   26.3069   35.4683 H       1  lig         0.0740
      7 H7         16.2359   22.3686   30.4041 H       1  lig         0.0477
      8 H8         14.7001   21.6154   29.9915 H       1  lig         0.0465
      9 H9         15.5153   23.7963   35.5494 H       1  lig         0.0495
     10 H10        16.7949   24.3563   34.4715 H       1  lig         0.0527
     11 H11        16.1452   19.5082   29.8585 H       1  lig         0.0459
     12 H12        14.5726   19.0617   30.5538 H       1  lig         0.0459
     13 H13        15.0655   21.2042   35.0482 H       1  lig         0.0438
     14 H14        16.6196   21.9772   35.1774 H       1  lig         0.0425
     15 H15        15.3588   17.0603   31.2468 H       1  lig         0.0681
     16 H16        16.8810   17.3262   30.4801 H       1  lig         0.0571
     17 H17        16.7747   19.4901   35.1699 H       1  lig         0.0423
     18 H18        17.7268   20.2913   33.9520 H       1  lig         0.0489
     19 H19        14.0754   23.2945   33.7606 H       1  lig         0.0634
     20 H20        14.2696   21.1573   32.2764 H       1  lig         0.0564
     21 H21        16.6528   22.4720   32.9160 H       1  lig         0.0555
     22 H22        16.8826   20.3736   31.7192 H       1  lig         0.0551
     23 H23        14.2115   17.9561   32.9869 H       1  lig         0.0433
     24 H24        14.7363   18.1897   34.6330 H       1  lig         0.0424
     25 H25        13.9362   19.5050   33.7811 H       1  lig         0.0357
     26 H26        15.8459   16.4019   33.2366 H       1  lig         0.4072
     27 C1         19.4189   18.7238   32.1528 C.1     1  lig        -0.1335
     28 C2         18.2356   18.3009   32.3773 C.1     1  lig        -0.1688
     29 C3         14.9639   25.7232   32.1292 C.2     1  lig        -0.2674
     30 C4         14.8653   24.2976   32.2709 C.2     1  lig        -0.0292
     31 C5         15.1981   26.4645   33.3967 C.2     1  lig         0.5673
     32 C6         14.5210   23.5569   30.9562 C.3     1  lig        -0.0559
     33 C7         15.1540   25.7581   34.7439 C.3     1  lig        -0.1823
     34 C8         15.2223   22.1838   30.7592 C.3     1  lig        -0.0728
     35 C9         15.7101   24.3012   34.6011 C.3     1  lig        -0.0705
     36 C10        15.6393   19.1386   30.7536 C.3     1  lig        -0.0740
     37 C11        15.9921   21.4023   34.5041 C.3     1  lig        -0.0723
     38 C12        16.1899   17.7620   31.1893 C.3     1  lig        -0.0690
     39 C13        16.7021   20.0482   34.2361 C.3     1  lig        -0.0643
     40 C14        15.0907   23.5040   33.4126 C.3     1  lig        -0.0353
     41 C15        15.3228   21.3763   32.0869 C.3     1  lig        -0.0466
     42 C16        15.6378   22.1848   33.2113 C.3     1  lig        -0.0538
     43 C17        15.8600   20.0559   31.9433 C.3     1  lig        -0.0659
     44 C18        16.7980   17.9584   32.5879 C.3     1  lig         0.2372
     45 C19        16.0518   19.1598   33.1579 C.3     1  lig        -0.0680
     46 C20        14.6408   18.6807   33.6625 C.3     1  lig        -0.0802
     47 O1         15.3474   27.6340   33.2974 O.2     1  lig        -0.5348
     48 O2         16.7540   16.7475   33.3497 O.3     1  lig        -0.5805
@<TRIPOS>BOND
     1    31    47    2
     2    31    33    1
     3    29    31    1
     4    33    35    1
     5     5    33    1
     6     6    33    1
     7    29    30    2
     8     2    29    1
     9    30    32    1
    10    30    40    1
    11    32    34    1
    12     3    32    1
    13     4    32    1
    14    35    40    1
    15    40    42    1
    16    19    40    1
    17     9    35    1
    18    10    35    1
    19    41    42    1
    20    37    42    1
    21    21    42    1
    22    34    41    1
    23    41    43    1
    24    20    41    1
    25     7    34    1
    26     8    34    1
    27    37    39    1
    28    13    37    1
    29    14    37    1
    30    39    45    1
    31    17    39    1
    32    18    39    1
    33    43    45    1
    34    45    46    1
    35    44    45    1
    36    36    43    1
    37    22    43    1
    38    23    46    1
    39    24    46    1
    40    25    46    1
    41    44    48    1
    42    38    44    1
    43    28    44    1
    44    26    48    1
    45    36    38    1
    46    15    38    1
    47    16    38    1
    48    11    36    1
    49    12    36    1
    50    27    28    3
    51     1    27    1
@<TRIPOS>SUBSTRUCTURE
     1 lig         1 TEMP              0 ****  ****    0 ROOT


########## Name:		ligand
########## HA_RMSDs:		14.4032
########## HA_RMSDh:		14.3740
########## HA_RMSDm:		9.8743
########## Cluster Size:	3
##########    Grid Score:          -20.685909
##########      Grid_vdw:          -21.810486
##########       Grid_es:            1.124576
##########    Int_energy:            3.260622

@<TRIPOS>MOLECULE
ligand
 48 51 1 0 0
SMALL
No Charge or Current Charge


@<TRIPOS>ATOM
      1 H1         20.1859   18.7484   36.1145 H       1  lig         0.1670
      2 H2         27.9244   16.1736   32.0336 H       1  lig         0.1473
      3 H3         26.4942   14.9534   33.4604 H       1  lig         0.0559
      4 H4         25.6702   13.9214   32.3149 H       1  lig         0.0575
      5 H5         26.0160   16.9641   28.6264 H       1  lig         0.0688
      6 H6         26.1308   18.6921   28.9543 H       1  lig         0.0740
      7 H7         24.4709   15.7280   34.4198 H       1  lig         0.0477
      8 H8         24.2213   14.0014   34.1904 H       1  lig         0.0465
      9 H9         23.8692   17.6882   29.4371 H       1  lig         0.0495
     10 H10        24.5734   18.5276   30.8200 H       1  lig         0.0527
     11 H11        22.1173   14.4560   35.5735 H       1  lig         0.0459
     12 H12        21.7169   13.2516   34.3306 H       1  lig         0.0459
     13 H13        21.8034   16.2209   30.3046 H       1  lig         0.0438
     14 H14        22.1787   17.8550   30.7719 H       1  lig         0.0425
     15 H15        19.5000   13.5181   34.6746 H       1  lig         0.0681
     16 H16        19.7741   14.5893   35.9986 H       1  lig         0.0571
     17 H17        19.9084   17.1368   31.5063 H       1  lig         0.0423
     18 H18        20.9427   17.7236   32.7781 H       1  lig         0.0489
     19 H19        24.3694   15.5707   30.3264 H       1  lig         0.0634
     20 H20        22.9872   14.4062   32.2082 H       1  lig         0.0564
     21 H21        23.5064   17.1350   32.5266 H       1  lig         0.0555
     22 H22        22.0402   16.1305   34.1788 H       1  lig         0.0551
     23 H23        19.8277   13.5550   32.4300 H       1  lig         0.0433
     24 H24        19.3014   14.7470   31.2717 H       1  lig         0.0424
     25 H25        20.9634   14.1707   31.2314 H       1  lig         0.0357
     26 H26        17.8839   16.3093   33.3369 H       1  lig         0.4072
     27 C1         19.9353   17.8810   35.5433 C.1     1  lig        -0.1335
     28 C2         19.6734   16.8395   34.8534 C.1     1  lig        -0.1688
     29 C3         27.0469   16.4901   31.4821 C.2     1  lig        -0.2674
     30 C4         25.7210   15.9786   31.6887 C.2     1  lig        -0.0292
     31 C5         27.1784   17.4550   30.3583 C.2     1  lig         0.5673
     32 C6         25.6278   14.9014   32.7963 C.3     1  lig        -0.0559
     33 C7         26.0199   17.7231   29.4085 C.3     1  lig        -0.1823
     34 C8         24.3423   14.9490   33.6686 C.3     1  lig        -0.0728
     35 C9         24.6629   17.6410   30.1854 C.3     1  lig        -0.0705
     36 C10        21.5212   14.2638   34.6783 C.3     1  lig        -0.0740
     37 C11        22.0334   16.8539   31.1649 C.3     1  lig        -0.0723
     38 C12        20.0107   14.4388   34.9536 C.3     1  lig        -0.0690
     39 C13        20.7912   16.8867   32.0952 C.3     1  lig        -0.0643
     40 C14        24.5172   16.3624   31.0661 C.3     1  lig        -0.0353
     41 C15        23.0748   15.2975   32.8336 C.3     1  lig        -0.0466
     42 C16        23.3090   16.2958   31.8508 C.3     1  lig        -0.0538
     43 C17        21.8445   15.2455   33.5660 C.3     1  lig        -0.0659
     44 C18        19.5332   15.5885   34.0510 C.3     1  lig         0.2372
     45 C19        20.5255   15.5955   32.8932 C.3     1  lig        -0.0680
     46 C20        20.1421   14.4398   31.8970 C.3     1  lig        -0.0802
     47 O1         28.2473   17.9396   30.2089 O.2     1  lig        -0.5348
     48 O2         18.1487   15.4476   33.7168 O.3     1  lig        -0.5805
@<TRIPOS>BOND
     1    31    47    2
     2    31    33    1
     3    29    31    1
     4    33    35    1
     5     5    33    1
     6     6    33    1
     7    29    30    2
     8     2    29    1
     9    30    32    1
    10    30    40    1
    11    32    34    1
    12     3    32    1
    13     4    32    1
    14    35    40    1
    15    40    42    1
    16    19    40    1
    17     9    35    1
    18    10    35    1
    19    41    42    1
    20    37    42    1
    21    21    42    1
    22    34    41    1
    23    41    43    1
    24    20    41    1
    25     7    34    1
    26     8    34    1
    27    37    39    1
    28    13    37    1
    29    14    37    1
    30    39    45    1
    31    17    39    1
    32    18    39    1
    33    43    45    1
    34    45    46    1
    35    44    45    1
    36    36    43    1
    37    22    43    1
    38    23    46    1
    39    24    46    1
    40    25    46    1
    41    44    48    1
    42    38    44    1
    43    28    44    1
    44    26    48    1
    45    36    38    1
    46    15    38    1
    47    16    38    1
    48    11    36    1
    49    12    36    1
    50    27    28    3
    51     1    27    1
@<TRIPOS>SUBSTRUCTURE
     1 lig         1 TEMP              0 ****  ****    0 ROOT


########## Name:		ligand
########## HA_RMSDs:		15.4439
########## HA_RMSDh:		15.1679
########## HA_RMSDm:		8.9164
########## Cluster Size:	3
##########    Grid Score:          -20.630884
##########      Grid_vdw:          -19.902193
##########       Grid_es:           -0.728692
##########    Int_energy:            3.288714

@<TRIPOS>MOLECULE
ligand
 48 51 1 0 0
SMALL
No Charge or Current Charge


@<TRIPOS>ATOM
      1 H1         14.4227   17.4423   30.0429 H       1  lig         0.1670
      2 H2         22.9032   15.4104   32.6620 H       1  lig         0.1473
      3 H3         21.8830   17.5227   32.4021 H       1  lig         0.0559
      4 H4         21.5838   17.9633   34.0673 H       1  lig         0.0575
      5 H5         21.1428   13.4630   35.6593 H       1  lig         0.0688
      6 H6         20.6056   12.2114   34.5405 H       1  lig         0.0740
      7 H7         19.6412   17.9306   31.7524 H       1  lig         0.0477
      8 H8         20.0440   19.2682   32.8223 H       1  lig         0.0465
      9 H9         18.8170   13.8649   35.1909 H       1  lig         0.0495
     10 H10        19.0528   13.7367   33.4471 H       1  lig         0.0527
     11 H11        17.8042   20.1798   31.9865 H       1  lig         0.0459
     12 H12        17.9689   20.5980   33.7051 H       1  lig         0.0459
     13 H13        17.3422   16.0454   35.6836 H       1  lig         0.0438
     14 H14        17.0687   14.8760   34.4239 H       1  lig         0.0425
     15 H15        15.7816   21.1406   33.8636 H       1  lig         0.0681
     16 H16        15.5397   20.9055   32.1719 H       1  lig         0.0571
     17 H17        15.1484   16.4343   34.7298 H       1  lig         0.0423
     18 H18        15.7909   16.3655   33.1130 H       1  lig         0.0489
     19 H19        19.9592   15.9159   35.3064 H       1  lig         0.0634
     20 H20        18.9242   18.2118   34.6241 H       1  lig         0.0564
     21 H21        18.4075   16.0421   32.9381 H       1  lig         0.0555
     22 H22        17.2575   18.1089   32.3960 H       1  lig         0.0551
     23 H23        16.2687   19.8369   35.6552 H       1  lig         0.0433
     24 H24        15.4553   18.3974   36.2085 H       1  lig         0.0424
     25 H25        17.2102   18.4100   36.0831 H       1  lig         0.0357
     26 H26        14.2037   19.8623   34.9429 H       1  lig         0.4072
     27 C1         14.5534   17.9355   30.9816 C.1     1  lig        -0.1335
     28 C2         14.7442   18.5081   32.1063 C.1     1  lig        -0.1688
     29 C3         22.0221   15.0905   33.2058 C.2     1  lig        -0.2674
     30 C4         20.9528   15.9572   33.6152 C.2     1  lig        -0.0292
     31 C5         21.8986   13.6820   33.6663 C.2     1  lig         0.5673
     32 C6         21.1534   17.4379   33.2113 C.3     1  lig        -0.0559
     33 C7         20.8080   13.2632   34.6416 C.3     1  lig        -0.1823
     34 C8         19.8644   18.1952   32.7858 C.3     1  lig        -0.0728
     35 C9         19.5071   14.0933   34.3761 C.3     1  lig        -0.0705
     36 C10        17.3960   20.0156   32.9865 C.3     1  lig        -0.0740
     37 C11        17.2558   15.9303   34.6006 C.3     1  lig        -0.0723
     38 C12        15.9044   20.4122   33.0631 C.3     1  lig        -0.0690
     39 C13        16.0075   16.7190   34.1220 C.3     1  lig        -0.0643
     40 C14        19.7503   15.6300   34.2718 C.3     1  lig        -0.0353
     41 C15        18.6338   17.8005   33.6547 C.3     1  lig        -0.0466
     42 C16        18.5816   16.4131   33.9539 C.3     1  lig        -0.0538
     43 C17        17.4440   18.5498   33.3798 C.3     1  lig        -0.0659
     44 C18        15.1293   19.1297   33.4078 C.3     1  lig         0.2372
     45 C19        16.1507   18.2533   34.1244 C.3     1  lig        -0.0680
     46 C20        16.2924   18.7585   35.6076 C.3     1  lig        -0.0802
     47 O1         22.7335   12.9340   33.2877 O.2     1  lig        -0.5348
     48 O2         13.9204   19.4259   34.1145 O.3     1  lig        -0.5805
@<TRIPOS>BOND
     1    31    47    2
     2    31    33    1
     3    29    31    1
     4    33    35    1
     5     5    33    1
     6     6    33    1
     7    29    30    2
     8     2    29    1
     9    30    32    1
    10    30    40    1
    11    32    34    1
    12     3    32    1
    13     4    32    1
    14    35    40    1
    15    40    42    1
    16    19    40    1
    17     9    35    1
    18    10    35    1
    19    41    42    1
    20    37    42    1
    21    21    42    1
    22    34    41    1
    23    41    43    1
    24    20    41    1
    25     7    34    1
    26     8    34    1
    27    37    39    1
    28    13    37    1
    29    14    37    1
    30    39    45    1
    31    17    39    1
    32    18    39    1
    33    43    45    1
    34    45    46    1
    35    44    45    1
    36    36    43    1
    37    22    43    1
    38    23    46    1
    39    24    46    1
    40    25    46    1
    41    44    48    1
    42    38    44    1
    43    28    44    1
    44    26    48    1
    45    36    38    1
    46    15    38    1
    47    16    38    1
    48    11    36    1
    49    12    36    1
    50    27    28    3
    51     1    27    1
@<TRIPOS>SUBSTRUCTURE
     1 lig         1 TEMP              0 ****  ****    0 ROOT


########## Name:		ligand
########## HA_RMSDs:		14.3104
########## HA_RMSDh:		14.2103
########## HA_RMSDm:		8.1396
########## Cluster Size:	4
##########    Grid Score:          -20.598366
##########      Grid_vdw:          -20.608450
##########       Grid_es:            0.010084
##########    Int_energy:            3.011314

@<TRIPOS>MOLECULE
ligand
 48 51 1 0 0
SMALL
No Charge or Current Charge


@<TRIPOS>ATOM
      1 H1         15.0976   24.0453   29.4158 H       1  lig         0.1670
      2 H2         21.9362   17.8989   32.1393 H       1  lig         0.1473
      3 H3         21.2759   19.9745   33.0484 H       1  lig         0.0559
      4 H4         20.3606   19.4584   34.4456 H       1  lig         0.0575
      5 H5         18.9650   15.2777   32.5597 H       1  lig         0.0688
      6 H6         18.8341   15.1338   30.8078 H       1  lig         0.0740
      7 H7         19.5305   21.3658   32.2534 H       1  lig         0.0477
      8 H8         19.5655   21.6456   33.9902 H       1  lig         0.0465
      9 H9         17.0690   16.5883   31.8683 H       1  lig         0.0495
     10 H10        17.9826   17.4064   30.5999 H       1  lig         0.0527
     11 H11        17.9364   23.5244   33.3881 H       1  lig         0.0459
     12 H12        17.4200   22.8134   34.9320 H       1  lig         0.0459
     13 H13        15.6942   18.4327   33.2397 H       1  lig         0.0438
     14 H14        15.8670   18.3473   31.5099 H       1  lig         0.0425
     15 H15        15.4061   23.8307   34.8169 H       1  lig         0.0681
     16 H16        15.8555   24.6900   33.3902 H       1  lig         0.0571
     17 H17        14.1146   19.9671   32.2275 H       1  lig         0.0423
     18 H18        15.3515   20.6289   31.1961 H       1  lig         0.0489
     19 H19        18.2200   17.7167   33.5790 H       1  lig         0.0634
     20 H20        17.7322   20.1763   34.3004 H       1  lig         0.0564
     21 H21        17.7798   19.6509   31.5547 H       1  lig         0.0555
     22 H22        17.1126   21.8935   32.1980 H       1  lig         0.0551
     23 H23        15.0208   21.6685   35.3855 H       1  lig         0.0433
     24 H24        13.9444   20.5201   34.6358 H       1  lig         0.0424
     25 H25        15.5940   20.0430   35.0188 H       1  lig         0.0357
     26 H26        12.9581   22.3607   32.8424 H       1  lig         0.4072
     27 C1         15.0423   23.6257   30.3968 C.1     1  lig        -0.1335
     28 C2         14.9730   23.1601   31.5832 C.1     1  lig        -0.1688
     29 C3         20.8883   17.6273   32.0884 C.2     1  lig        -0.2674
     30 C4         19.8152   18.3927   32.6585 C.2     1  lig        -0.0292
     31 C5         20.4801   16.3357   31.4750 C.2     1  lig         0.5673
     32 C6         20.2762   19.6825   33.3795 C.3     1  lig        -0.0559
     33 C7         19.0584   15.8106   31.6135 C.3     1  lig        -0.1823
     34 C8         19.3341   20.9088   33.2231 C.3     1  lig        -0.0728
     35 C9         18.0460   17.0051   31.6155 C.3     1  lig        -0.0705
     36 C10        17.1457   22.9616   33.8896 C.3     1  lig        -0.0740
     37 C11        16.0469   18.9879   32.3673 C.3     1  lig        -0.0723
     38 C12        15.7872   23.6934   33.8058 C.3     1  lig        -0.0690
     39 C13        15.1658   20.2554   32.2039 C.3     1  lig        -0.0643
     40 C14        18.4284   18.1537   32.5985 C.3     1  lig        -0.0353
     41 C15        17.8302   20.5069   33.2640 C.3     1  lig        -0.0466
     42 C16        17.5540   19.3003   32.5677 C.3     1  lig        -0.0538
     43 C17        16.9165   21.6102   33.2364 C.3     1  lig        -0.0659
     44 C18        14.8425   22.7704   33.0183 C.3     1  lig         0.2372
     45 C19        15.4135   21.3732   33.2353 C.3     1  lig        -0.0680
     46 C20        14.9786   20.8693   34.6607 C.3     1  lig        -0.0802
     47 O1         21.3364   15.7175   30.9417 O.2     1  lig        -0.5348
     48 O2         13.4775   22.9781   33.3955 O.3     1  lig        -0.5805
@<TRIPOS>BOND
     1    31    47    2
     2    31    33    1
     3    29    31    1
     4    33    35    1
     5     5    33    1
     6     6    33    1
     7    29    30    2
     8     2    29    1
     9    30    32    1
    10    30    40    1
    11    32    34    1
    12     3    32    1
    13     4    32    1
    14    35    40    1
    15    40    42    1
    16    19    40    1
    17     9    35    1
    18    10    35    1
    19    41    42    1
    20    37    42    1
    21    21    42    1
    22    34    41    1
    23    41    43    1
    24    20    41    1
    25     7    34    1
    26     8    34    1
    27    37    39    1
    28    13    37    1
    29    14    37    1
    30    39    45    1
    31    17    39    1
    32    18    39    1
    33    43    45    1
    34    45    46    1
    35    44    45    1
    36    36    43    1
    37    22    43    1
    38    23    46    1
    39    24    46    1
    40    25    46    1
    41    44    48    1
    42    38    44    1
    43    28    44    1
    44    26    48    1
    45    36    38    1
    46    15    38    1
    47    16    38    1
    48    11    36    1
    49    12    36    1
    50    27    28    3
    51     1    27    1
@<TRIPOS>SUBSTRUCTURE
     1 lig         1 TEMP              0 ****  ****    0 ROOT


########## Name:		ligand
########## HA_RMSDs:		14.2451
########## HA_RMSDh:		14.1189
########## HA_RMSDm:		9.3208
########## Cluster Size:	3
##########    Grid Score:          -20.254374
##########      Grid_vdw:          -20.279360
##########       Grid_es:            0.024987
##########    Int_energy:            3.008637

@<TRIPOS>MOLECULE
ligand
 48 51 1 0 0
SMALL
No Charge or Current Charge


@<TRIPOS>ATOM
      1 H1         23.5664   19.8260   30.7302 H       1  lig         0.1670
      2 H2         13.9985   20.0966   29.9798 H       1  lig         0.1473
      3 H3         15.4225   18.4901   30.9605 H       1  lig         0.0559
      4 H4         15.2262   18.8531   32.6593 H       1  lig         0.0575
      5 H5         14.2622   23.5061   32.0246 H       1  lig         0.0688
      6 H6         14.8979   24.3217   30.5971 H       1  lig         0.0740
      7 H7         17.7870   18.5914   31.0759 H       1  lig         0.0477
      8 H8         17.3079   17.7247   32.5304 H       1  lig         0.0465
      9 H9         16.6427   23.7097   32.3109 H       1  lig         0.0495
     10 H10        16.9823   23.0658   30.7037 H       1  lig         0.0527
     11 H11        19.8266   17.3170   32.7203 H       1  lig         0.0459
     12 H12        19.1796   17.5739   34.3547 H       1  lig         0.0459
     13 H13        18.2486   22.4814   34.0673 H       1  lig         0.0438
     14 H14        18.7029   23.0877   32.5004 H       1  lig         0.0425
     15 H15        21.2494   17.8567   35.2148 H       1  lig         0.0681
     16 H16        21.9930   17.4763   33.7055 H       1  lig         0.0571
     17 H17        20.6666   22.4653   33.9026 H       1  lig         0.0423
     18 H18        20.5990   21.6912   32.3444 H       1  lig         0.0489
     19 H19        15.9318   21.6202   33.1193 H       1  lig         0.0634
     20 H20        17.5447   19.6948   33.8260 H       1  lig         0.0564
     21 H21        18.1789   21.0768   31.4798 H       1  lig         0.0555
     22 H22        19.8085   19.4405   32.2251 H       1  lig         0.0551
     23 H23        19.9584   19.5297   36.0403 H       1  lig         0.0433
     24 H24        20.2567   21.2473   36.0199 H       1  lig         0.0424
     25 H25        18.6791   20.6336   35.5399 H       1  lig         0.0357
     26 H26        22.7486   20.9696   34.8551 H       1  lig         0.4072
     27 C1         22.9808   19.8165   31.6236 C.1     1  lig        -0.1335
     28 C2         22.3021   19.7754   32.7040 C.1     1  lig        -0.1688
     29 C3         14.5717   20.8635   30.4874 C.2     1  lig        -0.2674
     30 C4         15.5852   20.6111   31.4729 C.2     1  lig        -0.0292
     31 C5         14.2692   22.3005   30.2531 C.2     1  lig         0.5673
     32 C6         15.8111   19.1094   31.7727 C.3     1  lig        -0.0559
     33 C7         14.8736   23.3874   31.1302 C.3     1  lig        -0.1823
     34 C8         17.2856   18.6952   32.0380 C.3     1  lig        -0.0728
     35 C9         16.3194   22.9764   31.5693 C.3     1  lig        -0.0705
     36 C10        19.8397   17.9780   33.5901 C.3     1  lig        -0.0740
     37 C11        18.6680   22.1857   33.1027 C.3     1  lig        -0.0723
     38 C12        21.2667   18.1356   34.1620 C.3     1  lig        -0.0690
     39 C13        20.1285   21.7107   33.3283 C.3     1  lig        -0.0643
     40 C14        16.4164   21.5298   32.1432 C.3     1  lig        -0.0353
     41 C15        18.0593   19.7640   32.8651 C.3     1  lig        -0.0466
     42 C16        17.7486   21.0973   32.4869 C.3     1  lig        -0.0538
     43 C17        19.3905   19.3842   33.2345 C.3     1  lig        -0.0659
     44 C18        21.6285   19.6241   34.0275 C.3     1  lig         0.2372
     45 C19        20.2819   20.3394   34.0142 C.3     1  lig        -0.0680
     46 C20        19.7509   20.4364   35.4919 C.3     1  lig        -0.0802
     47 O1         13.4842   22.5362   29.3999 O.2     1  lig        -0.5348
     48 O2         22.5653   20.0252   35.0325 O.3     1  lig        -0.5805
@<TRIPOS>BOND
     1    31    47    2
     2    31    33    1
     3    29    31    1
     4    33    35    1
     5     5    33    1
     6     6    33    1
     7    29    30    2
     8     2    29    1
     9    30    32    1
    10    30    40    1
    11    32    34    1
    12     3    32    1
    13     4    32    1
    14    35    40    1
    15    40    42    1
    16    19    40    1
    17     9    35    1
    18    10    35    1
    19    41    42    1
    20    37    42    1
    21    21    42    1
    22    34    41    1
    23    41    43    1
    24    20    41    1
    25     7    34    1
    26     8    34    1
    27    37    39    1
    28    13    37    1
    29    14    37    1
    30    39    45    1
    31    17    39    1
    32    18    39    1
    33    43    45    1
    34    45    46    1
    35    44    45    1
    36    36    43    1
    37    22    43    1
    38    23    46    1
    39    24    46    1
    40    25    46    1
    41    44    48    1
    42    38    44    1
    43    28    44    1
    44    26    48    1
    45    36    38    1
    46    15    38    1
    47    16    38    1
    48    11    36    1
    49    12    36    1
    50    27    28    3
    51     1    27    1
@<TRIPOS>SUBSTRUCTURE
     1 lig         1 TEMP              0 ****  ****    0 ROOT


########## Name:		ligand
########## HA_RMSDs:		18.5293
########## HA_RMSDh:		18.3540
########## HA_RMSDm:		14.6699
########## Cluster Size:	3
##########    Grid Score:          -20.241919
##########      Grid_vdw:          -19.281296
##########       Grid_es:           -0.960623
##########    Int_energy:            3.250784

@<TRIPOS>MOLECULE
ligand
 48 51 1 0 0
SMALL
No Charge or Current Charge


@<TRIPOS>ATOM
      1 H1         33.9068    8.2050   28.0938 H       1  lig         0.1670
      2 H2         34.2106   17.0313   30.3974 H       1  lig         0.1473
      3 H3         35.8687   15.6674   29.4172 H       1  lig         0.0559
      4 H4         35.8189   16.2116   27.7566 H       1  lig         0.0575
      5 H5         31.1975   17.4839   27.8300 H       1  lig         0.0688
      6 H6         30.1079   16.6744   28.9545 H       1  lig         0.0740
      7 H7         35.6384   13.3871   28.8161 H       1  lig         0.0477
      8 H8         36.7729   14.0436   27.6421 H       1  lig         0.0465
      9 H9         30.8953   15.2296   27.0444 H       1  lig         0.0495
     10 H10        31.2277   14.5354   28.6319 H       1  lig         0.0527
     11 H11        37.0460   11.5773   27.0184 H       1  lig         0.0459
     12 H12        37.1181   12.5399   25.5271 H       1  lig         0.0459
     13 H13        32.3046   13.8693   25.2180 H       1  lig         0.0438
     14 H14        31.4081   13.1909   26.5466 H       1  lig         0.0425
     15 H15        36.8573   10.7042   24.2363 H       1  lig         0.0681
     16 H16        36.9221    9.6587   25.6068 H       1  lig         0.0571
     17 H17        32.1378   11.4730   24.8956 H       1  lig         0.0423
     18 H18        32.6327   11.1734   26.5378 H       1  lig         0.0489
     19 H19        33.1342   15.8743   26.7343 H       1  lig         0.0634
     20 H20        35.0462   14.2439   26.0314 H       1  lig         0.0564
     21 H21        33.2408   13.3188   27.9554 H       1  lig         0.0555
     22 H22        34.8743   11.7071   27.1662 H       1  lig         0.0551
     23 H23        35.4386   12.2817   23.4330 H       1  lig         0.0433
     24 H24        33.7280   12.1518   23.1222 H       1  lig         0.0424
     25 H25        34.3485   13.5454   23.9990 H       1  lig         0.0357
     26 H26        33.6382    9.4905   23.7829 H       1  lig         0.4072
     27 C1         34.1601    8.7309   27.1990 C.1     1  lig        -0.1335
     28 C2         34.4692    9.3909   26.1510 C.1     1  lig        -0.1688
     29 C3         33.5083   16.6396   29.6710 C.2     1  lig        -0.2674
     30 C4         33.8627   15.8084   28.5548 C.2     1  lig        -0.0292
     31 C5         32.0748   17.0300   29.7316 C.2     1  lig         0.5673
     32 C6         35.3760   15.4988   28.4563 C.3     1  lig        -0.0559
     33 C7         31.1200   16.7076   28.5912 C.3     1  lig        -0.1823
     34 C8         35.7351   14.0670   27.9698 C.3     1  lig        -0.0728
     35 C9         31.5079   15.3366   27.9418 C.3     1  lig        -0.0705
     36 C10        36.5463   11.7906   26.0705 C.3     1  lig        -0.0740
     37 C11        32.4013   13.2506   26.1133 C.3     1  lig        -0.0723
     38 C12        36.3996   10.5175   25.2069 C.3     1  lig        -0.0690
     39 C13        32.8140   11.8190   25.6775 C.3     1  lig        -0.0643
     40 C14        33.0230   15.2095   27.5954 C.3     1  lig        -0.0353
     41 C15        34.7789   13.5679   26.8466 C.3     1  lig        -0.0466
     42 C16        33.4228   13.9295   27.0644 C.3     1  lig        -0.0538
     43 C17        35.1314   12.2989   26.2827 C.3     1  lig        -0.0659
     44 C18        34.8904   10.2821   25.0299 C.3     1  lig         0.2372
     45 C19        34.2709   11.6651   25.1997 C.3     1  lig        -0.0680
     46 C20        34.4656   12.4695   23.8618 C.3     1  lig        -0.0802
     47 O1         31.7452   17.6609   30.6767 O.2     1  lig        -0.5348
     48 O2         34.6107    9.5926   23.8073 O.3     1  lig        -0.5805
@<TRIPOS>BOND
     1    31    47    2
     2    31    33    1
     3    29    31    1
     4    33    35    1
     5     5    33    1
     6     6    33    1
     7    29    30    2
     8     2    29    1
     9    30    32    1
    10    30    40    1
    11    32    34    1
    12     3    32    1
    13     4    32    1
    14    35    40    1
    15    40    42    1
    16    19    40    1
    17     9    35    1
    18    10    35    1
    19    41    42    1
    20    37    42    1
    21    21    42    1
    22    34    41    1
    23    41    43    1
    24    20    41    1
    25     7    34    1
    26     8    34    1
    27    37    39    1
    28    13    37    1
    29    14    37    1
    30    39    45    1
    31    17    39    1
    32    18    39    1
    33    43    45    1
    34    45    46    1
    35    44    45    1
    36    36    43    1
    37    22    43    1
    38    23    46    1
    39    24    46    1
    40    25    46    1
    41    44    48    1
    42    38    44    1
    43    28    44    1
    44    26    48    1
    45    36    38    1
    46    15    38    1
    47    16    38    1
    48    11    36    1
    49    12    36    1
    50    27    28    3
    51     1    27    1
@<TRIPOS>SUBSTRUCTURE
     1 lig         1 TEMP              0 ****  ****    0 ROOT


########## Name:		ligand
########## HA_RMSDs:		14.6154
########## HA_RMSDh:		14.5457
########## HA_RMSDm:		9.2709
########## Cluster Size:	13
##########    Grid Score:          -20.086800
##########      Grid_vdw:          -19.910534
##########       Grid_es:           -0.176267
##########    Int_energy:            3.169756

@<TRIPOS>MOLECULE
ligand
 48 51 1 0 0
SMALL
No Charge or Current Charge


@<TRIPOS>ATOM
      1 H1         22.4402   25.9084   32.9497 H       1  lig         0.1670
      2 H2         26.5414   17.4103   32.4335 H       1  lig         0.1473
      3 H3         25.5507   18.4435   34.3099 H       1  lig         0.0559
      4 H4         24.0044   17.6301   34.3695 H       1  lig         0.0575
      5 H5         23.7530   16.7795   29.6582 H       1  lig         0.0688
      6 H6         24.6008   17.8571   28.5507 H       1  lig         0.0740
      7 H7         24.5687   20.5990   34.3725 H       1  lig         0.0477
      8 H8         23.6529   19.6594   35.5449 H       1  lig         0.0465
      9 H9         22.5860   18.8839   29.6652 H       1  lig         0.0495
     10 H10        24.0689   19.8085   29.9080 H       1  lig         0.0527
     11 H11        22.6763   21.9516   36.1268 H       1  lig         0.0459
     12 H12        21.3772   20.7460   36.2479 H       1  lig         0.0459
     13 H13        20.7379   19.7901   31.3786 H       1  lig         0.0438
     14 H14        21.8291   20.7578   30.4286 H       1  lig         0.0425
     15 H15        19.7870   22.3499   36.3032 H       1  lig         0.0681
     16 H16        20.9701   23.6048   36.3381 H       1  lig         0.0571
     17 H17        20.0178   22.1017   31.4881 H       1  lig         0.0423
     18 H18        21.6362   22.6347   31.8463 H       1  lig         0.0489
     19 H19        22.6414   18.0111   31.8469 H       1  lig         0.0634
     20 H20        21.9087   19.3321   33.9743 H       1  lig         0.0564
     21 H21        23.4401   20.7194   32.0909 H       1  lig         0.0555
     22 H22        22.5941   22.0307   33.9492 H       1  lig         0.0551
     23 H23        19.0908   20.7825   34.8182 H       1  lig         0.0433
     24 H24        18.5699   20.9999   33.1686 H       1  lig         0.0424
     25 H25        19.7242   19.7295   33.5550 H       1  lig         0.0357
     26 H26        18.7798   23.7329   33.2843 H       1  lig         0.4072
     27 C1         21.8785   25.1120   33.3875 C.1     1  lig        -0.1335
     28 C2         21.1804   24.1654   33.8833 C.1     1  lig        -0.1688
     29 C3         25.6861   17.7295   31.8497 C.2     1  lig        -0.2674
     30 C4         24.4988   18.3255   32.3950 C.2     1  lig        -0.0292
     31 C5         25.6445   17.4763   30.3850 C.2     1  lig         0.5673
     32 C6         24.5254   18.4863   33.9342 C.3     1  lig        -0.0559
     33 C7         24.3656   17.6779   29.5851 C.3     1  lig        -0.1823
     34 C8         23.8594   19.7790   34.4828 C.3     1  lig        -0.0728
     35 C9         23.5530   18.8808   30.1722 C.3     1  lig        -0.0705
     36 C10        21.7243   21.6221   35.7041 C.3     1  lig        -0.0740
     37 C11        21.5273   20.5423   31.4486 C.3     1  lig        -0.0723
     38 C12        20.6563   22.7369   35.7732 C.3     1  lig        -0.0690
     39 C13        20.9172   21.8389   32.0453 C.3     1  lig        -0.0643
     40 C14        23.3661   18.8199   31.7192 C.3     1  lig        -0.0353
     41 C15        22.5688   20.1572   33.6977 C.3     1  lig        -0.0466
     42 C16        22.6855   19.9526   32.2971 C.3     1  lig        -0.0538
     43 C17        21.8523   21.2775   34.2309 C.3     1  lig        -0.0659
     44 C18        20.2726   23.0640   34.3206 C.3     1  lig         0.2372
     45 C19        20.5904   21.7869   33.5503 C.3     1  lig        -0.0680
     46 C20        19.4303   20.7525   33.7936 C.3     1  lig        -0.0802
     47 O1         26.6347   17.0457   29.9015 O.2     1  lig        -0.5348
     48 O2         18.9312   23.5556   34.2343 O.3     1  lig        -0.5805
@<TRIPOS>BOND
     1    31    47    2
     2    31    33    1
     3    29    31    1
     4    33    35    1
     5     5    33    1
     6     6    33    1
     7    29    30    2
     8     2    29    1
     9    30    32    1
    10    30    40    1
    11    32    34    1
    12     3    32    1
    13     4    32    1
    14    35    40    1
    15    40    42    1
    16    19    40    1
    17     9    35    1
    18    10    35    1
    19    41    42    1
    20    37    42    1
    21    21    42    1
    22    34    41    1
    23    41    43    1
    24    20    41    1
    25     7    34    1
    26     8    34    1
    27    37    39    1
    28    13    37    1
    29    14    37    1
    30    39    45    1
    31    17    39    1
    32    18    39    1
    33    43    45    1
    34    45    46    1
    35    44    45    1
    36    36    43    1
    37    22    43    1
    38    23    46    1
    39    24    46    1
    40    25    46    1
    41    44    48    1
    42    38    44    1
    43    28    44    1
    44    26    48    1
    45    36    38    1
    46    15    38    1
    47    16    38    1
    48    11    36    1
    49    12    36    1
    50    27    28    3
    51     1    27    1
@<TRIPOS>SUBSTRUCTURE
     1 lig         1 TEMP              0 ****  ****    0 ROOT


########## Name:		ligand
########## HA_RMSDs:		14.5788
########## HA_RMSDh:		14.4418
########## HA_RMSDm:		9.3832
########## Cluster Size:	18
##########    Grid Score:          -20.052612
##########      Grid_vdw:          -19.004255
##########       Grid_es:           -1.048356
##########    Int_energy:            3.258513

@<TRIPOS>MOLECULE
ligand
 48 51 1 0 0
SMALL
No Charge or Current Charge


@<TRIPOS>ATOM
      1 H1         24.9461   23.0586   35.4161 H       1  lig         0.1670
      2 H2         23.5323   14.5193   32.5393 H       1  lig         0.1473
      3 H3         22.3736   15.7733   34.1688 H       1  lig         0.0559
      4 H4         20.9159   16.1950   33.3006 H       1  lig         0.0575
      5 H5         22.9441   16.1614   28.9569 H       1  lig         0.0688
      6 H6         24.6691   16.4957   28.8187 H       1  lig         0.0740
      7 H7         22.8120   18.0176   34.7892 H       1  lig         0.0477
      8 H8         21.0777   17.8248   35.0155 H       1  lig         0.0465
      9 H9         23.2670   18.4961   29.4417 H       1  lig         0.0495
     10 H10        24.5720   18.1715   30.5838 H       1  lig         0.0527
     11 H11        21.3002   20.1196   36.1251 H       1  lig         0.0459
     12 H12        19.7666   20.0807   35.2294 H       1  lig         0.0459
     13 H13        21.5766   20.2418   30.5678 H       1  lig         0.0438
     14 H14        23.3151   20.3183   30.6013 H       1  lig         0.0425
     15 H15        19.5293   22.3221   35.3833 H       1  lig         0.0681
     16 H16        20.9259   22.4606   36.3863 H       1  lig         0.0571
     17 H17        22.2395   22.4231   31.3902 H       1  lig         0.0423
     18 H18        23.3662   21.7076   32.5083 H       1  lig         0.0489
     19 H19        21.6349   17.6143   30.8851 H       1  lig         0.0634
     20 H20        20.6522   18.8867   32.9401 H       1  lig         0.0564
     21 H21        23.4144   19.0660   32.5459 H       1  lig         0.0555
     22 H22        22.5033   20.4311   34.3333 H       1  lig         0.0551
     23 H23        19.0976   21.7601   33.2281 H       1  lig         0.0433
     24 H24        19.7921   22.4181   31.7706 H       1  lig         0.0424
     25 H25        19.6715   20.6736   31.9649 H       1  lig         0.0357
     26 H26        19.8260   23.7799   33.6264 H       1  lig         0.4072
     27 C1         23.9315   23.0308   35.0826 C.1     1  lig        -0.1335
     28 C2         22.7221   22.9592   34.6806 C.1     1  lig        -0.1688
     29 C3         23.4669   15.3784   31.8819 C.2     1  lig        -0.2674
     30 C4         22.6982   16.5606   32.1532 C.2     1  lig        -0.0292
     31 C5         24.1270   15.3518   30.5497 C.2     1  lig         0.5673
     32 C6         21.9390   16.5218   33.5015 C.3     1  lig        -0.0559
     33 C7         23.8464   16.4255   29.5083 C.3     1  lig        -0.1823
     34 C8         21.8666   17.8727   34.2669 C.3     1  lig        -0.0728
     35 C9         23.6108   17.8039   30.2129 C.3     1  lig        -0.0705
     36 C10        20.7475   20.5480   35.2857 C.3     1  lig        -0.0740
     37 C11        22.4385   20.2668   31.2389 C.3     1  lig        -0.0723
     38 C12        20.5898   22.0783   35.4316 C.3     1  lig        -0.0690
     39 C13        22.3775   21.5789   32.0661 C.3     1  lig        -0.0643
     40 C14        22.5943   17.7424   31.3938 C.3     1  lig        -0.0353
     41 C15        21.6612   19.0835   33.3094 C.3     1  lig        -0.0466
     42 C16        22.4134   18.9818   32.1090 C.3     1  lig        -0.0538
     43 C17        21.4755   20.3416   33.9692 C.3     1  lig        -0.0659
     44 C18        21.3200   22.7082   34.2339 C.3     1  lig         0.2372
     45 C19        21.2980   21.6209   33.1650 C.3     1  lig        -0.0680
     46 C20        19.8748   21.6052   32.4948 C.3     1  lig        -0.0802
     47 O1         24.8185   14.4176   30.3284 O.2     1  lig        -0.5348
     48 O2         20.7499   23.9732   33.8830 O.3     1  lig        -0.5805
@<TRIPOS>BOND
     1    31    47    2
     2    31    33    1
     3    29    31    1
     4    33    35    1
     5     5    33    1
     6     6    33    1
     7    29    30    2
     8     2    29    1
     9    30    32    1
    10    30    40    1
    11    32    34    1
    12     3    32    1
    13     4    32    1
    14    35    40    1
    15    40    42    1
    16    19    40    1
    17     9    35    1
    18    10    35    1
    19    41    42    1
    20    37    42    1
    21    21    42    1
    22    34    41    1
    23    41    43    1
    24    20    41    1
    25     7    34    1
    26     8    34    1
    27    37    39    1
    28    13    37    1
    29    14    37    1
    30    39    45    1
    31    17    39    1
    32    18    39    1
    33    43    45    1
    34    45    46    1
    35    44    45    1
    36    36    43    1
    37    22    43    1
    38    23    46    1
    39    24    46    1
    40    25    46    1
    41    44    48    1
    42    38    44    1
    43    28    44    1
    44    26    48    1
    45    36    38    1
    46    15    38    1
    47    16    38    1
    48    11    36    1
    49    12    36    1
    50    27    28    3
    51     1    27    1
@<TRIPOS>SUBSTRUCTURE
     1 lig         1 TEMP              0 ****  ****    0 ROOT


########## Name:		ligand
########## HA_RMSDs:		14.9230
########## HA_RMSDh:		14.7452
########## HA_RMSDm:		8.9924
########## Cluster Size:	3
##########    Grid Score:          -19.857311
##########      Grid_vdw:          -20.644182
##########       Grid_es:            0.786872
##########    Int_energy:            3.004776

@<TRIPOS>MOLECULE
ligand
 48 51 1 0 0
SMALL
No Charge or Current Charge


@<TRIPOS>ATOM
      1 H1         19.5428   14.5878   30.5747 H       1  lig         0.1670
      2 H2         21.9873   22.0758   36.1009 H       1  lig         0.1473
      3 H3         22.5362   19.7877   36.2840 H       1  lig         0.0559
      4 H4         24.1786   19.7828   35.6849 H       1  lig         0.0575
      5 H5         23.6176   23.5546   32.7797 H       1  lig         0.0688
      6 H6         22.0134   23.9074   32.1404 H       1  lig         0.0740
      7 H7         21.8548   18.0570   34.8161 H       1  lig         0.0477
      8 H8         23.4357   17.5491   35.3982 H       1  lig         0.0465
      9 H9         23.0855   21.8378   31.1798 H       1  lig         0.0495
     10 H10        21.4990   21.5396   31.8917 H       1  lig         0.0527
     11 H11        22.8042   15.3681   34.2188 H       1  lig         0.0459
     12 H12        24.5418   15.6482   33.9780 H       1  lig         0.0459
     13 H13        24.2815   19.4771   30.7679 H       1  lig         0.0438
     14 H14        22.6187   19.8658   30.4310 H       1  lig         0.0425
     15 H15        24.6481   14.0854   32.3501 H       1  lig         0.0681
     16 H16        23.0038   13.6279   32.6000 H       1  lig         0.0571
     17 H17        23.3257   17.6954   29.4314 H       1  lig         0.0423
     18 H18        21.9282   17.6094   30.4664 H       1  lig         0.0489
     19 H19        24.2094   20.8827   33.0099 H       1  lig         0.0634
     20 H20        24.4572   18.3150   33.4017 H       1  lig         0.0564
     21 H21        21.9539   19.2279   32.5549 H       1  lig         0.0555
     22 H22        22.2148   16.8199   32.7023 H       1  lig         0.0551
     23 H23        25.7516   15.9129   31.5823 H       1  lig         0.0433
     24 H24        25.5291   16.7683   30.0795 H       1  lig         0.0424
     25 H25        25.6375   17.6714   31.5856 H       1  lig         0.0357
     26 H26        23.3142   13.7493   29.7431 H       1  lig         0.4072
     27 C1         20.5762   14.8191   30.7159 C.1     1  lig        -0.1335
     28 C2         21.8185   15.0576   30.8866 C.1     1  lig        -0.1688
     29 C3         22.2285   22.0136   35.0463 C.2     1  lig        -0.2674
     30 C4         22.8357   20.8780   34.4107 C.2     1  lig        -0.0292
     31 C5         22.0209   23.1905   34.1615 C.2     1  lig         0.5673
     32 C6         23.1344   19.7033   35.3732 C.3     1  lig        -0.0559
     33 C7         22.5801   23.2226   32.7465 C.3     1  lig        -0.1823
     34 C8         22.9205   18.2824   34.7805 C.3     1  lig        -0.0728
     35 C9         22.5392   21.7865   32.1237 C.3     1  lig        -0.0705
     36 C10        23.5786   15.5777   33.4772 C.3     1  lig        -0.0740
     37 C11        23.2522   19.1936   31.0006 C.3     1  lig        -0.0723
     38 C12        23.6343   14.4815   32.3893 C.3     1  lig        -0.0690
     39 C13        23.0093   17.7541   30.4731 C.3     1  lig        -0.0643
     40 C14        23.1353   20.6814   33.0484 C.3     1  lig        -0.0353
     41 C15        23.3776   18.1876   33.2949 C.3     1  lig        -0.0466
     42 C16        23.0435   19.3379   32.5318 C.3     1  lig        -0.0538
     43 C17        23.3072   16.8721   32.7314 C.3     1  lig        -0.0659
     44 C18        23.2972   15.1716   31.0572 C.3     1  lig         0.2372
     45 C19        23.6876   16.6289   31.2784 C.3     1  lig        -0.0680
     46 C20        25.2490   16.7572   31.1348 C.3     1  lig        -0.0802
     47 O1         21.4636   24.1153   34.6453 O.2     1  lig        -0.5348
     48 O2         23.9084   14.4978   29.9523 O.3     1  lig        -0.5805
@<TRIPOS>BOND
     1    31    47    2
     2    31    33    1
     3    29    31    1
     4    33    35    1
     5     5    33    1
     6     6    33    1
     7    29    30    2
     8     2    29    1
     9    30    32    1
    10    30    40    1
    11    32    34    1
    12     3    32    1
    13     4    32    1
    14    35    40    1
    15    40    42    1
    16    19    40    1
    17     9    35    1
    18    10    35    1
    19    41    42    1
    20    37    42    1
    21    21    42    1
    22    34    41    1
    23    41    43    1
    24    20    41    1
    25     7    34    1
    26     8    34    1
    27    37    39    1
    28    13    37    1
    29    14    37    1
    30    39    45    1
    31    17    39    1
    32    18    39    1
    33    43    45    1
    34    45    46    1
    35    44    45    1
    36    36    43    1
    37    22    43    1
    38    23    46    1
    39    24    46    1
    40    25    46    1
    41    44    48    1
    42    38    44    1
    43    28    44    1
    44    26    48    1
    45    36    38    1
    46    15    38    1
    47    16    38    1
    48    11    36    1
    49    12    36    1
    50    27    28    3
    51     1    27    1
@<TRIPOS>SUBSTRUCTURE
     1 lig         1 TEMP              0 ****  ****    0 ROOT


########## Name:		ligand
########## HA_RMSDs:		20.1431
########## HA_RMSDh:		20.0546
########## HA_RMSDm:		15.3625
########## Cluster Size:	2
##########    Grid Score:          -19.696241
##########      Grid_vdw:          -19.947742
##########       Grid_es:            0.251502
##########    Int_energy:            3.048193

@<TRIPOS>MOLECULE
ligand
 48 51 1 0 0
SMALL
No Charge or Current Charge


@<TRIPOS>ATOM
      1 H1         32.2942    2.8158   31.1663 H       1  lig         0.1670
      2 H2         29.1454   10.9871   27.5554 H       1  lig         0.1473
      3 H3         28.0031    9.0056   28.1380 H       1  lig         0.0559
      4 H4         27.2437    9.4795   29.6396 H       1  lig         0.0575
      5 H5         30.5949   12.6846   30.8558 H       1  lig         0.0688
      6 H6         32.2375   12.4713   30.2531 H       1  lig         0.0740
      7 H7         28.9624    7.0565   29.0842 H       1  lig         0.0477
      8 H8         27.3305    7.1119   29.7400 H       1  lig         0.0465
      9 H9         31.5401   10.7871   31.9945 H       1  lig         0.0495
     10 H10        32.1018   10.0511   30.4927 H       1  lig         0.0527
     11 H11        27.9400    4.7710   30.5740 H       1  lig         0.0459
     12 H12        26.9581    5.5682   31.8214 H       1  lig         0.0459
     13 H13        30.3146    8.9021   33.4498 H       1  lig         0.0438
     14 H14        31.8097    8.7242   32.5766 H       1  lig         0.0425
     15 H15        27.5170    4.0159   33.3648 H       1  lig         0.0681
     16 H16        28.3782    3.0808   32.1988 H       1  lig         0.0571
     17 H17        31.3658    6.8269   34.1299 H       1  lig         0.0423
     18 H18        31.6420    6.3724   32.4720 H       1  lig         0.0489
     19 H19        29.2847   10.3563   31.4922 H       1  lig         0.0634
     20 H20        28.1386    8.0289   31.7703 H       1  lig         0.0564
     21 H21        30.7036    8.0491   30.6580 H       1  lig         0.0555
     22 H22        29.7532    5.8610   31.1024 H       1  lig         0.0551
     23 H23        27.7566    6.0440   34.3530 H       1  lig         0.0433
     24 H24        29.1375    6.6858   35.2021 H       1  lig         0.0424
     25 H25        28.3242    7.6732   33.9940 H       1  lig         0.0357
     26 H26        28.9621    4.3887   35.1141 H       1  lig         0.4072
     27 C1         31.5954    3.3423   31.7794 C.1     1  lig        -0.1335
     28 C2         30.7322    3.9492   32.4976 C.1     1  lig        -0.1688
     29 C3         29.6514   10.9354   28.5123 C.2     1  lig        -0.2674
     30 C4         29.3267   10.0102   29.5615 C.2     1  lig        -0.0292
     31 C5         30.7057   11.9266   28.8546 C.2     1  lig         0.5673
     32 C6         28.1582    9.0548   29.2186 C.3     1  lig        -0.0559
     33 C7         31.2516   12.0410   30.2706 C.3     1  lig        -0.1823
     34 C8         28.3016    7.6035   29.7564 C.3     1  lig        -0.0728
     35 C9         31.2891   10.6278   30.9439 C.3     1  lig        -0.0705
     36 C10        27.9425    5.1652   31.5929 C.3     1  lig        -0.0740
     37 C11        30.8044    8.3245   32.6622 C.3     1  lig        -0.0723
     38 C12        28.3123    4.0740   32.6228 C.3     1  lig        -0.0690
     39 C13        30.9200    6.8506   33.1353 C.3     1  lig        -0.0643
     40 C14        29.9563    9.8297   30.8086 C.3     1  lig        -0.0353
     41 C15        28.9300    7.5610   31.1805 C.3     1  lig        -0.0466
     42 C16        29.9856    8.4951   31.3547 C.3     1  lig        -0.0538
     43 C17        28.9829    6.2567   31.7710 C.3     1  lig        -0.0659
     44 C18        29.6155    4.5343   33.2970 C.3     1  lig         0.2372
     45 C19        29.6024    6.0516   33.1455 C.3     1  lig        -0.0680
     46 C20        28.6379    6.6558   34.2317 C.3     1  lig        -0.0802
     47 O1         31.0363   12.6580   27.9854 O.2     1  lig        -0.5348
     48 O2         29.7247    4.0170   34.6270 O.3     1  lig        -0.5805
@<TRIPOS>BOND
     1    31    47    2
     2    31    33    1
     3    29    31    1
     4    33    35    1
     5     5    33    1
     6     6    33    1
     7    29    30    2
     8     2    29    1
     9    30    32    1
    10    30    40    1
    11    32    34    1
    12     3    32    1
    13     4    32    1
    14    35    40    1
    15    40    42    1
    16    19    40    1
    17     9    35    1
    18    10    35    1
    19    41    42    1
    20    37    42    1
    21    21    42    1
    22    34    41    1
    23    41    43    1
    24    20    41    1
    25     7    34    1
    26     8    34    1
    27    37    39    1
    28    13    37    1
    29    14    37    1
    30    39    45    1
    31    17    39    1
    32    18    39    1
    33    43    45    1
    34    45    46    1
    35    44    45    1
    36    36    43    1
    37    22    43    1
    38    23    46    1
    39    24    46    1
    40    25    46    1
    41    44    48    1
    42    38    44    1
    43    28    44    1
    44    26    48    1
    45    36    38    1
    46    15    38    1
    47    16    38    1
    48    11    36    1
    49    12    36    1
    50    27    28    3
    51     1    27    1
@<TRIPOS>SUBSTRUCTURE
     1 lig         1 TEMP              0 ****  ****    0 ROOT


########## Name:		ligand
########## HA_RMSDs:		14.2847
########## HA_RMSDh:		14.1216
########## HA_RMSDm:		9.2691
########## Cluster Size:	5
##########    Grid Score:          -19.238161
##########      Grid_vdw:          -18.479450
##########       Grid_es:           -0.758711
##########    Int_energy:            3.190247

@<TRIPOS>MOLECULE
ligand
 48 51 1 0 0
SMALL
No Charge or Current Charge


@<TRIPOS>ATOM
      1 H1         13.7789   18.6433   30.4771 H       1  lig         0.1670
      2 H2         22.8944   20.9890   30.8472 H       1  lig         0.1473
      3 H3         21.0431   22.1932   31.6795 H       1  lig         0.0559
      4 H4         21.1314   21.8175   33.3846 H       1  lig         0.0575
      5 H5         23.1965   17.5305   32.8025 H       1  lig         0.0688
      6 H6         22.9230   16.6491   31.3009 H       1  lig         0.0740
      7 H7         18.7662   21.5566   31.5217 H       1  lig         0.0477
      8 H8         18.8736   22.4514   33.0330 H       1  lig         0.0465
      9 H9         20.9089   16.7841   32.8112 H       1  lig         0.0495
     10 H10        20.6078   17.3971   31.1844 H       1  lig         0.0527
     11 H11        16.3230   22.2726   32.9382 H       1  lig         0.0459
     12 H12        16.8302   22.1046   34.6324 H       1  lig         0.0459
     13 H13        18.8838   17.5488   34.3881 H       1  lig         0.0438
     14 H14        18.7530   16.9174   32.7714 H       1  lig         0.0425
     15 H15        14.7990   21.3287   35.2455 H       1  lig         0.0681
     16 H16        14.1566   21.5903   33.6662 H       1  lig         0.0571
     17 H17        16.5587   17.0254   33.9474 H       1  lig         0.0423
     18 H18        16.6164   17.8552   32.4177 H       1  lig         0.0489
     19 H19        21.0313   18.9468   33.7236 H       1  lig         0.0634
     20 H20        18.9541   20.4295   34.2664 H       1  lig         0.0564
     21 H21        18.9113   19.0330   31.8446 H       1  lig         0.0555
     22 H22        16.8797   20.2290   32.4199 H       1  lig         0.0551
     23 H23        16.3407   19.9591   36.1912 H       1  lig         0.0433
     24 H24        16.4469   18.2206   36.1139 H       1  lig         0.0424
     25 H25        17.8850   19.1927   35.8262 H       1  lig         0.0357
     26 H26        14.3409   19.1611   35.7862 H       1  lig         0.4072
     27 C1         14.1048   18.9690   31.4410 C.1     1  lig        -0.1335
     28 C2         14.4918   19.3217   32.6052 C.1     1  lig        -0.1688
     29 C3         22.4601   20.0932   31.2754 C.2     1  lig        -0.2674
     30 C4         21.3148   20.0718   32.1415 C.2     1  lig        -0.0292
     31 C5         23.1066   18.7719   31.0582 C.2     1  lig         0.5673
     32 C6         20.7204   21.4708   32.4334 C.3     1  lig        -0.0559
     33 C7         22.6750   17.5431   31.8456 C.3     1  lig        -0.1823
     34 C8         19.1705   21.5310   32.5334 C.3     1  lig        -0.0728
     35 C9         21.1347   17.5998   32.1214 C.3     1  lig        -0.0705
     36 C10        16.3669   21.5922   33.7918 C.3     1  lig        -0.0740
     37 C11        18.5152   17.7797   33.3858 C.3     1  lig        -0.0723
     38 C12        14.9604   21.0945   34.1941 C.3     1  lig        -0.0690
     39 C13        16.9692   17.9038   33.4488 C.3     1  lig        -0.0643
     40 C14        20.6479   18.9637   32.6997 C.3     1  lig        -0.0353
     41 C15        18.5764   20.2837   33.2520 C.3     1  lig        -0.0466
     42 C16        19.2228   19.0707   32.8941 C.3     1  lig        -0.0538
     43 C17        17.1616   20.3387   33.4713 C.3     1  lig        -0.0659
     44 C18        14.9651   19.5693   33.9991 C.3     1  lig         0.2372
     45 C19        16.4328   19.1772   34.1308 C.3     1  lig        -0.0680
     46 C20        16.8082   19.1447   35.6583 C.3     1  lig        -0.0802
     47 O1         24.0126   18.7529   30.2976 O.2     1  lig        -0.5348
     48 O2         14.0414   18.9281   34.8846 O.3     1  lig        -0.5805
@<TRIPOS>BOND
     1    31    47    2
     2    31    33    1
     3    29    31    1
     4    33    35    1
     5     5    33    1
     6     6    33    1
     7    29    30    2
     8     2    29    1
     9    30    32    1
    10    30    40    1
    11    32    34    1
    12     3    32    1
    13     4    32    1
    14    35    40    1
    15    40    42    1
    16    19    40    1
    17     9    35    1
    18    10    35    1
    19    41    42    1
    20    37    42    1
    21    21    42    1
    22    34    41    1
    23    41    43    1
    24    20    41    1
    25     7    34    1
    26     8    34    1
    27    37    39    1
    28    13    37    1
    29    14    37    1
    30    39    45    1
    31    17    39    1
    32    18    39    1
    33    43    45    1
    34    45    46    1
    35    44    45    1
    36    36    43    1
    37    22    43    1
    38    23    46    1
    39    24    46    1
    40    25    46    1
    41    44    48    1
    42    38    44    1
    43    28    44    1
    44    26    48    1
    45    36    38    1
    46    15    38    1
    47    16    38    1
    48    11    36    1
    49    12    36    1
    50    27    28    3
    51     1    27    1
@<TRIPOS>SUBSTRUCTURE
     1 lig         1 TEMP              0 ****  ****    0 ROOT


########## Name:		ligand
########## HA_RMSDs:		14.5433
########## HA_RMSDh:		14.3458
########## HA_RMSDm:		10.4154
########## Cluster Size:	8
##########    Grid Score:          -19.216166
##########      Grid_vdw:          -19.546148
##########       Grid_es:            0.329983
##########    Int_energy:            3.313468

@<TRIPOS>MOLECULE
ligand
 48 51 1 0 0
SMALL
No Charge or Current Charge


@<TRIPOS>ATOM
      1 H1         24.3203   14.0929   35.5101 H       1  lig         0.1670
      2 H2         20.8747   22.2934   33.5560 H       1  lig         0.1473
      3 H3         22.8605   21.2920   32.7659 H       1  lig         0.0559
      4 H4         22.3827   20.8147   31.1534 H       1  lig         0.0575
      5 H5         17.7407   20.2382   32.2032 H       1  lig         0.0688
      6 H6         17.2845   19.8313   33.8564 H       1  lig         0.0740
      7 H7         23.6582   19.1291   33.3132 H       1  lig         0.0477
      8 H8         24.2199   19.4069   31.6690 H       1  lig         0.0465
      9 H9         18.4431   17.9725   32.6081 H       1  lig         0.0495
     10 H10        19.2312   18.3930   34.1296 H       1  lig         0.0527
     11 H11        25.5437   17.2622   32.1100 H       1  lig         0.0459
     12 H12        24.9959   17.2407   30.4203 H       1  lig         0.0459
     13 H13        20.1173   16.4388   31.1877 H       1  lig         0.0438
     14 H14        19.7913   16.3086   32.8924 H       1  lig         0.0425
     15 H15        25.4844   15.0452   30.2076 H       1  lig         0.0681
     16 H16        26.1781   14.9859   31.7859 H       1  lig         0.0571
     17 H17        21.0550   14.3560   31.9980 H       1  lig         0.0423
     18 H18        21.8072   15.1670   33.3426 H       1  lig         0.0489
     19 H19        20.0734   19.0819   31.3289 H       1  lig         0.0634
     20 H20        22.4365   18.1094   30.8018 H       1  lig         0.0564
     21 H21        21.4927   17.7896   33.4141 H       1  lig         0.0555
     22 H22        23.5933   16.6894   32.8990 H       1  lig         0.0551
     23 H23        23.4155   15.3483   29.3274 H       1  lig         0.0433
     24 H24        21.9413   14.4907   29.6891 H       1  lig         0.0424
     25 H25        21.9301   16.2490   29.6238 H       1  lig         0.0357
     26 H26        23.7228   13.3627   30.1436 H       1  lig         0.4072
     27 C1         24.2817   14.1371   34.4433 C.1     1  lig        -0.1335
     28 C2         24.2095   14.2184   33.1715 C.1     1  lig        -0.1688
     29 C3         20.3626   21.3617   33.3459 C.2     1  lig        -0.2674
     30 C4         20.9407   20.2491   32.6459 C.2     1  lig        -0.0292
     31 C5         18.9287   21.1997   33.7051 C.2     1  lig         0.5673
     32 C6         22.4027   20.4812   32.1937 C.3     1  lig        -0.0559
     33 C7         18.1178   20.0147   33.2011 C.3     1  lig        -0.1823
     34 C8         23.3338   19.2396   32.2787 C.3     1  lig        -0.0728
     35 C9         19.0281   18.7436   33.1135 C.3     1  lig        -0.0705
     36 C10        24.9029   16.7514   31.3876 C.3     1  lig        -0.0740
     37 C11        20.5881   16.4687   32.1732 C.3     1  lig        -0.0723
     38 C12        25.2751   15.2574   31.2553 C.3     1  lig        -0.0690
     39 C13        21.5716   15.2728   32.2829 C.3     1  lig        -0.0643
     40 C14        20.3795   18.9860   32.3743 C.3     1  lig        -0.0353
     41 C15        22.6059   17.9264   31.8653 C.3     1  lig        -0.0466
     42 C16        21.2705   17.8523   32.3433 C.3     1  lig        -0.0538
     43 C17        23.4468   16.7674   31.8176 C.3     1  lig        -0.0659
     44 C18        24.0414   14.4588   31.7078 C.3     1  lig         0.2372
     45 C19        22.8703   15.4044   31.4639 C.3     1  lig        -0.0680
     46 C20        22.5205   15.3844   29.9302 C.3     1  lig        -0.0802
     47 O1         18.4473   22.0752   34.3388 O.2     1  lig        -0.5348
     48 O2         23.9854   13.1798   31.0680 O.3     1  lig        -0.5805
@<TRIPOS>BOND
     1    31    47    2
     2    31    33    1
     3    29    31    1
     4    33    35    1
     5     5    33    1
     6     6    33    1
     7    29    30    2
     8     2    29    1
     9    30    32    1
    10    30    40    1
    11    32    34    1
    12     3    32    1
    13     4    32    1
    14    35    40    1
    15    40    42    1
    16    19    40    1
    17     9    35    1
    18    10    35    1
    19    41    42    1
    20    37    42    1
    21    21    42    1
    22    34    41    1
    23    41    43    1
    24    20    41    1
    25     7    34    1
    26     8    34    1
    27    37    39    1
    28    13    37    1
    29    14    37    1
    30    39    45    1
    31    17    39    1
    32    18    39    1
    33    43    45    1
    34    45    46    1
    35    44    45    1
    36    36    43    1
    37    22    43    1
    38    23    46    1
    39    24    46    1
    40    25    46    1
    41    44    48    1
    42    38    44    1
    43    28    44    1
    44    26    48    1
    45    36    38    1
    46    15    38    1
    47    16    38    1
    48    11    36    1
    49    12    36    1
    50    27    28    3
    51     1    27    1
@<TRIPOS>SUBSTRUCTURE
     1 lig         1 TEMP              0 ****  ****    0 ROOT


########## Name:		ligand
########## HA_RMSDs:		14.7392
########## HA_RMSDh:		14.4671
########## HA_RMSDm:		8.8723
########## Cluster Size:	6
##########    Grid Score:          -19.207493
##########      Grid_vdw:          -19.073774
##########       Grid_es:           -0.133719
##########    Int_energy:            3.225273

@<TRIPOS>MOLECULE
ligand
 48 51 1 0 0
SMALL
No Charge or Current Charge


@<TRIPOS>ATOM
      1 H1         23.1797   16.0244   28.1548 H       1  lig         0.1670
      2 H2         15.6879   15.9251   33.4082 H       1  lig         0.1473
      3 H3         17.7053   14.7178   33.6154 H       1  lig         0.0559
      4 H4         18.4824   15.5760   34.9253 H       1  lig         0.0575
      5 H5         16.4104   19.7987   33.9991 H       1  lig         0.0688
      6 H6         15.8975   20.1535   32.3506 H       1  lig         0.0740
      7 H7         19.5988   14.8913   32.2017 H       1  lig         0.0477
      8 H8         20.2604   14.4989   33.7842 H       1  lig         0.0465
      9 H9         18.3968   20.1219   32.6799 H       1  lig         0.0495
     10 H10        17.8426   19.0265   31.4126 H       1  lig         0.0527
     11 H11        22.4217   14.2129   32.4451 H       1  lig         0.0459
     12 H12        22.8304   14.9423   34.0124 H       1  lig         0.0459
     13 H13        20.9379   19.5135   33.2676 H       1  lig         0.0438
     14 H14        20.2433   19.6234   31.6754 H       1  lig         0.0425
     15 H15        24.8973   15.5097   33.2981 H       1  lig         0.0681
     16 H16        24.6629   14.7022   31.7919 H       1  lig         0.0571
     17 H17        22.7314   19.4911   31.6376 H       1  lig         0.0423
     18 H18        21.9148   18.2794   30.6908 H       1  lig         0.0489
     19 H19        18.7437   18.3642   34.2014 H       1  lig         0.0634
     20 H20        20.8112   16.7732   34.1582 H       1  lig         0.0564
     21 H21        19.6391   17.3886   31.6956 H       1  lig         0.0555
     22 H22        21.6839   16.0851   31.6053 H       1  lig         0.0551
     23 H23        24.0378   17.3311   34.3425 H       1  lig         0.0433
     24 H24        23.9101   18.9664   33.7519 H       1  lig         0.0424
     25 H25        22.5194   18.2080   34.5177 H       1  lig         0.0357
     26 H26        26.0204   16.9861   31.3670 H       1  lig         0.4072
     27 C1         23.4976   16.2917   29.1392 C.1     1  lig        -0.1335
     28 C2         23.8457   16.5938   30.3295 C.1     1  lig        -0.1688
     29 C3         16.2798   16.8200   33.2557 C.2     1  lig        -0.2674
     30 C4         17.7047   16.8968   33.4162 C.2     1  lig        -0.0292
     31 C5         15.6135   18.1124   32.9441 C.2     1  lig         0.5673
     32 C6         18.3630   15.5613   33.8393 C.3     1  lig        -0.0559
     33 C7         16.3832   19.4249   32.9757 C.3     1  lig        -0.1823
     34 C8         19.7550   15.2735   33.2103 C.3     1  lig        -0.0728
     35 C9         17.8548   19.1924   32.4938 C.3     1  lig        -0.0705
     36 C10        22.8119   15.1069   32.9371 C.3     1  lig        -0.0740
     37 C11        20.7552   18.9464   32.3517 C.3     1  lig        -0.0723
     38 C12        24.2319   15.4560   32.4374 C.3     1  lig        -0.0690
     39 C13        22.1251   18.5884   31.7155 C.3     1  lig        -0.0643
     40 C14        18.5633   17.9903   33.1898 C.3     1  lig        -0.0353
     41 C15        20.6310   16.5565   33.1030 C.3     1  lig        -0.0466
     42 C16        19.8944   17.7063   32.7124 C.3     1  lig        -0.0538
     43 C17        21.9657   16.3305   32.6335 C.3     1  lig        -0.0659
     44 C18        24.1328   16.8395   31.7737 C.3     1  lig         0.2372
     45 C19        22.9285   17.4930   32.4429 C.3     1  lig        -0.0680
     46 C20        23.3677   18.0247   33.8570 C.3     1  lig        -0.0802
     47 O1         14.4485   18.0640   32.7435 O.2     1  lig        -0.5348
     48 O2         25.3768   17.5434   31.8487 O.3     1  lig        -0.5805
@<TRIPOS>BOND
     1    31    47    2
     2    31    33    1
     3    29    31    1
     4    33    35    1
     5     5    33    1
     6     6    33    1
     7    29    30    2
     8     2    29    1
     9    30    32    1
    10    30    40    1
    11    32    34    1
    12     3    32    1
    13     4    32    1
    14    35    40    1
    15    40    42    1
    16    19    40    1
    17     9    35    1
    18    10    35    1
    19    41    42    1
    20    37    42    1
    21    21    42    1
    22    34    41    1
    23    41    43    1
    24    20    41    1
    25     7    34    1
    26     8    34    1
    27    37    39    1
    28    13    37    1
    29    14    37    1
    30    39    45    1
    31    17    39    1
    32    18    39    1
    33    43    45    1
    34    45    46    1
    35    44    45    1
    36    36    43    1
    37    22    43    1
    38    23    46    1
    39    24    46    1
    40    25    46    1
    41    44    48    1
    42    38    44    1
    43    28    44    1
    44    26    48    1
    45    36    38    1
    46    15    38    1
    47    16    38    1
    48    11    36    1
    49    12    36    1
    50    27    28    3
    51     1    27    1
@<TRIPOS>SUBSTRUCTURE
     1 lig         1 TEMP              0 ****  ****    0 ROOT


########## Name:		ligand
########## HA_RMSDs:		15.7414
########## HA_RMSDh:		15.5607
########## HA_RMSDm:		9.1884
########## Cluster Size:	2
##########    Grid Score:          -18.952841
##########      Grid_vdw:          -18.758017
##########       Grid_es:           -0.194824
##########    Int_energy:            3.266050

@<TRIPOS>MOLECULE
ligand
 48 51 1 0 0
SMALL
No Charge or Current Charge


@<TRIPOS>ATOM
      1 H1         13.0938   17.5890   30.6099 H       1  lig         0.1670
      2 H2         12.4253   25.1418   35.6704 H       1  lig         0.1473
      3 H3         13.0969   22.9667   36.2934 H       1  lig         0.0559
      4 H4         14.8296   23.1664   36.4122 H       1  lig         0.0575
      5 H5         15.1103   26.6746   33.1570 H       1  lig         0.0688
      6 H6         13.8861   26.7641   31.8921 H       1  lig         0.0740
      7 H7         13.2782   21.0875   34.8617 H       1  lig         0.0477
      8 H8         14.5220   20.8385   36.0812 H       1  lig         0.0465
      9 H9         15.4797   24.8239   31.6641 H       1  lig         0.0495
     10 H10        13.7840   24.3379   31.7017 H       1  lig         0.0527
     11 H11        14.6785   18.5352   34.9781 H       1  lig         0.0459
     12 H12        16.3178   19.0477   35.4317 H       1  lig         0.0459
     13 H13        16.9901   22.6402   32.0149 H       1  lig         0.0438
     14 H14        15.5840   22.7716   30.9975 H       1  lig         0.0425
     15 H15        17.2589   17.4388   34.1552 H       1  lig         0.0681
     16 H16        15.7196   16.7646   33.7657 H       1  lig         0.0571
     17 H17        16.8746   20.6779   30.5971 H       1  lig         0.0423
     18 H18        15.1929   20.4442   30.9828 H       1  lig         0.0489
     19 H19        15.8432   24.1284   33.8797 H       1  lig         0.0634
     20 H20        16.1870   21.6442   34.5997 H       1  lig         0.0564
     21 H21        14.1746   22.1494   32.7256 H       1  lig         0.0555
     22 H22        14.6138   19.8131   33.2123 H       1  lig         0.0551
     23 H23        18.3732   19.3652   33.7148 H       1  lig         0.0433
     24 H24        18.6998   20.1063   32.1709 H       1  lig         0.0424
     25 H25        18.0756   21.0877   33.4911 H       1  lig         0.0357
     26 H26        17.6989   18.1757   30.8423 H       1  lig         0.4072
     27 C1         14.0600   17.7292   31.0437 C.1     1  lig        -0.1335
     28 C2         15.2002   17.9263   31.5827 C.1     1  lig        -0.1688
     29 C3         13.0864   25.0634   34.8153 C.2     1  lig        -0.2674
     30 C4         14.0228   23.9963   34.5992 C.2     1  lig        -0.0292
     31 C5         13.1355   26.1545   33.8062 C.2     1  lig         0.5673
     32 C6         14.0235   22.9241   35.7155 C.3     1  lig        -0.0559
     33 C7         14.2228   26.1971   32.7422 C.3     1  lig        -0.1823
     34 C8         14.2314   21.4602   35.2362 C.3     1  lig        -0.0728
     35 C9         14.6010   24.7412   32.3070 C.3     1  lig        -0.0705
     36 C10        15.6622   18.8166   34.5948 C.3     1  lig        -0.0740
     37 C11        15.9947   22.2248   31.8401 C.3     1  lig        -0.0723
     38 C12        16.2828   17.6881   33.7409 C.3     1  lig        -0.0690
     39 C13        16.1514   20.7414   31.4104 C.3     1  lig        -0.0643
     40 C14        14.8786   23.7784   33.5018 C.3     1  lig        -0.0353
     41 C15        15.2695   21.3594   34.0799 C.3     1  lig        -0.0466
     42 C16        15.1569   22.4121   33.1331 C.3     1  lig        -0.0538
     43 C17        15.5833   20.0216   33.6743 C.3     1  lig        -0.0659
     44 C18        16.4535   18.2577   32.3229 C.3     1  lig         0.2372
     45 C19        16.5548   19.7647   32.5319 C.3     1  lig        -0.0680
     46 C20        18.0114   20.1068   33.0184 C.3     1  lig        -0.0802
     47 O1         12.3302   27.0129   33.9261 O.2     1  lig        -0.5348
     48 O2         17.5369   17.6248   31.6343 O.3     1  lig        -0.5805
@<TRIPOS>BOND
     1    31    47    2
     2    31    33    1
     3    29    31    1
     4    33    35    1
     5     5    33    1
     6     6    33    1
     7    29    30    2
     8     2    29    1
     9    30    32    1
    10    30    40    1
    11    32    34    1
    12     3    32    1
    13     4    32    1
    14    35    40    1
    15    40    42    1
    16    19    40    1
    17     9    35    1
    18    10    35    1
    19    41    42    1
    20    37    42    1
    21    21    42    1
    22    34    41    1
    23    41    43    1
    24    20    41    1
    25     7    34    1
    26     8    34    1
    27    37    39    1
    28    13    37    1
    29    14    37    1
    30    39    45    1
    31    17    39    1
    32    18    39    1
    33    43    45    1
    34    45    46    1
    35    44    45    1
    36    36    43    1
    37    22    43    1
    38    23    46    1
    39    24    46    1
    40    25    46    1
    41    44    48    1
    42    38    44    1
    43    28    44    1
    44    26    48    1
    45    36    38    1
    46    15    38    1
    47    16    38    1
    48    11    36    1
    49    12    36    1
    50    27    28    3
    51     1    27    1
@<TRIPOS>SUBSTRUCTURE
     1 lig         1 TEMP              0 ****  ****    0 ROOT


########## Name:		ligand
########## HA_RMSDs:		14.4415
########## HA_RMSDh:		14.3257
########## HA_RMSDm:		9.4795
########## Cluster Size:	2
##########    Grid Score:          -18.864895
##########      Grid_vdw:          -19.183653
##########       Grid_es:            0.318758
##########    Int_energy:            3.008398

@<TRIPOS>MOLECULE
ligand
 48 51 1 0 0
SMALL
No Charge or Current Charge


@<TRIPOS>ATOM
      1 H1         24.7589   18.9395   31.0053 H       1  lig         0.1670
      2 H2         15.2200   18.1636   30.2216 H       1  lig         0.1473
      3 H3         16.8186   16.6754   31.1160 H       1  lig         0.0559
      4 H4         16.5847   16.9156   32.8317 H       1  lig         0.0575
      5 H5         15.0977   21.4579   32.4595 H       1  lig         0.0688
      6 H6         15.6347   22.4210   31.0844 H       1  lig         0.0740
      7 H7         19.1564   17.0374   31.2492 H       1  lig         0.0477
      8 H8         18.7808   16.0399   32.6492 H       1  lig         0.0465
      9 H9         17.4401   21.9135   32.7692 H       1  lig         0.0495
     10 H10        17.8484   21.4057   31.1296 H       1  lig         0.0527
     11 H11        21.3299   15.9103   32.8284 H       1  lig         0.0459
     12 H12        20.6601   15.9978   34.4714 H       1  lig         0.0459
     13 H13        19.1775   20.7763   34.4607 H       1  lig         0.0438
     14 H14        19.5579   21.5193   32.9333 H       1  lig         0.0425
     15 H15        22.6856   16.4637   35.3569 H       1  lig         0.0681
     16 H16        23.4655   16.2574   33.8321 H       1  lig         0.0571
     17 H17        21.5815   21.0441   34.3077 H       1  lig         0.0423
     18 H18        21.6001   20.3582   32.7074 H       1  lig         0.0489
     19 H19        16.9722   19.7138   33.4530 H       1  lig         0.0634
     20 H20        18.7942   17.9464   34.0567 H       1  lig         0.0564
     21 H21        19.2641   19.5239   31.7966 H       1  lig         0.0555
     22 H22        21.0700   18.0430   32.4554 H       1  lig         0.0551
     23 H23        21.2142   17.9292   36.2701 H       1  lig         0.0433
     24 H24        21.3155   19.6679   36.3497 H       1  lig         0.0424
     25 H25        19.8171   18.9078   35.8273 H       1  lig         0.0357
     26 H26        24.5452   18.2158   35.2219 H       1  lig         0.4072
     27 C1         24.1787   18.8113   31.8932 C.1     1  lig        -0.1335
     28 C2         23.5102   18.6305   32.9655 C.1     1  lig        -0.1688
     29 C3         15.7031   18.9602   30.7752 C.2     1  lig        -0.2674
     30 C4         16.7401   18.7682   31.7498 C.2     1  lig        -0.0292
     31 C5         15.2391   20.3646   30.6220 C.2     1  lig         0.5673
     32 C6         17.1355   17.2871   31.9643 C.3     1  lig        -0.0559
     33 C7         15.7174   21.4610   31.5629 C.3     1  lig        -0.1823
     34 C8         18.6478   17.0283   32.2130 C.3     1  lig        -0.0728
     35 C9         17.2011   21.1921   31.9852 C.3     1  lig        -0.0705
     36 C10        21.2691   16.5174   33.7346 C.3     1  lig        -0.0740
     37 C11        19.6265   20.5860   33.4829 C.3     1  lig        -0.0723
     38 C12        22.6697   16.8027   34.3219 C.3     1  lig        -0.0690
     39 C13        21.1318   20.2677   33.6884 C.3     1  lig        -0.0643
     40 C14        17.4625   19.7352   32.4758 C.3     1  lig        -0.0353
     41 C15        19.2964   18.1286   33.1039 C.3     1  lig        -0.0466
     42 C16        18.8358   19.4375   32.8011 C.3     1  lig        -0.0538
     43 C17        20.6626   17.8816   33.4578 C.3     1  lig        -0.0659
     44 C18        22.8600   18.3279   34.2747 C.3     1  lig         0.2372
     45 C19        21.4408   18.8854   34.2955 C.3     1  lig        -0.0680
     46 C20        20.9043   18.8365   35.7736 C.3     1  lig        -0.0802
     47 O1         14.4312   20.5584   29.7797 O.2     1  lig        -0.5348
     48 O2         23.7465   18.7743   35.3058 O.3     1  lig        -0.5805
@<TRIPOS>BOND
     1    31    47    2
     2    31    33    1
     3    29    31    1
     4    33    35    1
     5     5    33    1
     6     6    33    1
     7    29    30    2
     8     2    29    1
     9    30    32    1
    10    30    40    1
    11    32    34    1
    12     3    32    1
    13     4    32    1
    14    35    40    1
    15    40    42    1
    16    19    40    1
    17     9    35    1
    18    10    35    1
    19    41    42    1
    20    37    42    1
    21    21    42    1
    22    34    41    1
    23    41    43    1
    24    20    41    1
    25     7    34    1
    26     8    34    1
    27    37    39    1
    28    13    37    1
    29    14    37    1
    30    39    45    1
    31    17    39    1
    32    18    39    1
    33    43    45    1
    34    45    46    1
    35    44    45    1
    36    36    43    1
    37    22    43    1
    38    23    46    1
    39    24    46    1
    40    25    46    1
    41    44    48    1
    42    38    44    1
    43    28    44    1
    44    26    48    1
    45    36    38    1
    46    15    38    1
    47    16    38    1
    48    11    36    1
    49    12    36    1
    50    27    28    3
    51     1    27    1
@<TRIPOS>SUBSTRUCTURE
     1 lig         1 TEMP              0 ****  ****    0 ROOT


########## Name:		ligand
########## HA_RMSDs:		16.4204
########## HA_RMSDh:		16.4186
########## HA_RMSDm:		13.1020
########## Cluster Size:	7
##########    Grid Score:          -18.827169
##########      Grid_vdw:          -17.769241
##########       Grid_es:           -1.057928
##########    Int_energy:            3.208424

@<TRIPOS>MOLECULE
ligand
 48 51 1 0 0
SMALL
No Charge or Current Charge


@<TRIPOS>ATOM
      1 H1          2.1672   25.5088   11.9025 H       1  lig         0.1670
      2 H2          8.7149   20.8212    7.0684 H       1  lig         0.1473
      3 H3          8.9111   21.8180    9.1987 H       1  lig         0.0559
      4 H4          8.7693   20.4223   10.2419 H       1  lig         0.0575
      5 H5          6.0304   17.8818    7.2375 H       1  lig         0.0688
      6 H6          5.0092   18.7379    6.0838 H       1  lig         0.0740
      7 H7          7.2226   23.0164   10.3508 H       1  lig         0.0477
      8 H8          8.1741   22.2570   11.6214 H       1  lig         0.0465
      9 H9          4.2551   18.9257    8.4821 H       1  lig         0.0495
     10 H10         4.5039   20.4880    7.7009 H       1  lig         0.0527
     11 H11         6.7519   23.7574   13.1289 H       1  lig         0.0459
     12 H12         6.9957   22.2057   13.9586 H       1  lig         0.0459
     13 H13         4.0461   19.3274   11.1217 H       1  lig         0.0438
     14 H14         3.3025   20.2804    9.8694 H       1  lig         0.0425
     15 H15         5.3710   22.6638   15.4601 H       1  lig         0.0681
     16 H16         5.1509   24.2528   14.8260 H       1  lig         0.0571
     17 H17         2.4086   20.7976   12.1372 H       1  lig         0.0423
     18 H18         3.0301   22.1675   11.2603 H       1  lig         0.0489
     19 H19         6.2624   19.0873    9.6942 H       1  lig         0.0634
     20 H20         6.5646   20.5321   11.8458 H       1  lig         0.0564
     21 H21         5.1361   21.6877    9.7383 H       1  lig         0.0555
     22 H22         5.2153   22.9673   11.7986 H       1  lig         0.0551
     23 H23         5.0243   20.5401   14.7412 H       1  lig         0.0433
     24 H24         3.5655   19.8308   14.1023 H       1  lig         0.0424
     25 H25         5.0937   19.5744   13.2687 H       1  lig         0.0357
     26 H26         3.3439   21.7396   15.5398 H       1  lig         0.4072
     27 C1          2.6816   24.7784   12.4885 C.1     1  lig        -0.1335
     28 C2          3.2657   23.8822   13.1849 C.1     1  lig        -0.1688
     29 C3          7.7600   20.4173    7.3838 C.2     1  lig        -0.2674
     30 C4          7.2467   20.4795    8.7236 C.2     1  lig        -0.0292
     31 C5          6.9177   19.6547    6.4246 C.2     1  lig         0.5673
     32 C6          8.1882   21.1903    9.7257 C.3     1  lig        -0.0559
     33 C7          5.7053   18.8638    6.8944 C.3     1  lig        -0.1823
     34 C8          7.4830   22.0599   10.8038 C.3     1  lig        -0.0728
     35 C9          5.0163   19.6034    8.0903 C.3     1  lig        -0.0705
     36 C10         6.2545   22.8604   13.5051 C.3     1  lig        -0.0740
     37 C11         3.9819   20.3389   10.7136 C.3     1  lig        -0.0723
     38 C12         5.1619   23.2092   14.5408 C.3     1  lig        -0.0690
     39 C13         3.3308   21.2579   11.7819 C.3     1  lig        -0.0643
     40 C14         6.0039   20.0364    9.2167 C.3     1  lig        -0.0353
     41 C15         6.1687   21.4057   11.3230 C.3     1  lig        -0.0466
     42 C16         5.4086   20.7852   10.2961 C.3     1  lig        -0.0538
     43 C17         5.5355   22.1100   12.3981 C.3     1  lig        -0.0659
     44 C18         3.8279   22.7279   13.9464 C.3     1  lig         0.2372
     45 C19         4.2242   21.6111   12.9868 C.3     1  lig        -0.0680
     46 C20         4.5066   20.3084   13.8225 C.3     1  lig        -0.0802
     47 O1          7.2864   19.6438    5.3004 O.2     1  lig        -0.5348
     48 O2          2.8892   22.3959   14.9745 O.3     1  lig        -0.5805
@<TRIPOS>BOND
     1    31    47    2
     2    31    33    1
     3    29    31    1
     4    33    35    1
     5     5    33    1
     6     6    33    1
     7    29    30    2
     8     2    29    1
     9    30    32    1
    10    30    40    1
    11    32    34    1
    12     3    32    1
    13     4    32    1
    14    35    40    1
    15    40    42    1
    16    19    40    1
    17     9    35    1
    18    10    35    1
    19    41    42    1
    20    37    42    1
    21    21    42    1
    22    34    41    1
    23    41    43    1
    24    20    41    1
    25     7    34    1
    26     8    34    1
    27    37    39    1
    28    13    37    1
    29    14    37    1
    30    39    45    1
    31    17    39    1
    32    18    39    1
    33    43    45    1
    34    45    46    1
    35    44    45    1
    36    36    43    1
    37    22    43    1
    38    23    46    1
    39    24    46    1
    40    25    46    1
    41    44    48    1
    42    38    44    1
    43    28    44    1
    44    26    48    1
    45    36    38    1
    46    15    38    1
    47    16    38    1
    48    11    36    1
    49    12    36    1
    50    27    28    3
    51     1    27    1
@<TRIPOS>SUBSTRUCTURE
     1 lig         1 TEMP              0 ****  ****    0 ROOT


########## Name:		ligand
########## HA_RMSDs:		15.8651
########## HA_RMSDh:		15.5791
########## HA_RMSDm:		10.1953
########## Cluster Size:	9
##########    Grid Score:          -18.754431
##########      Grid_vdw:          -17.704243
##########       Grid_es:           -1.050189
##########    Int_energy:            3.050992

@<TRIPOS>MOLECULE
ligand
 48 51 1 0 0
SMALL
No Charge or Current Charge


@<TRIPOS>ATOM
      1 H1         27.0738   21.4515   34.2120 H       1  lig         0.1670
      2 H2         21.3405   15.5295   29.5603 H       1  lig         0.1473
      3 H3         23.5743   16.1705   29.1484 H       1  lig         0.0559
      4 H4         24.4413   14.7557   29.6988 H       1  lig         0.0575
      5 H5         21.1756   13.4571   32.9593 H       1  lig         0.0688
      6 H6         20.1439   14.6953   33.6729 H       1  lig         0.0740
      7 H7         24.8789   17.6459   30.4658 H       1  lig         0.0477
      8 H8         26.0390   16.5054   29.7952 H       1  lig         0.0465
      9 H9         22.5541   14.7985   34.4052 H       1  lig         0.0495
     10 H10        21.9663   16.3110   33.7125 H       1  lig         0.0527
     11 H11        27.7306   18.1519   30.7818 H       1  lig         0.0459
     12 H12        28.3633   16.5063   30.9998 H       1  lig         0.0459
     13 H13        25.2247   14.9247   34.5608 H       1  lig         0.0438
     14 H14        24.1044   16.1895   34.9785 H       1  lig         0.0425
     15 H15        29.9242   17.2168   32.4704 H       1  lig         0.0681
     16 H16        29.4901   18.8680   32.2243 H       1  lig         0.0571
     17 H17        26.4264   16.6612   35.7502 H       1  lig         0.0423
     18 H18        25.7169   17.8977   34.7506 H       1  lig         0.0489
     19 H19        23.7584   14.2480   32.4633 H       1  lig         0.0634
     20 H20        26.0668   15.2839   31.8258 H       1  lig         0.0564
     21 H21        24.1286   17.0348   32.8232 H       1  lig         0.0555
     22 H22        26.3284   17.9862   32.4435 H       1  lig         0.0551
     23 H23        28.9557   15.3757   33.3755 H       1  lig         0.0433
     24 H24        28.2487   15.1828   34.9574 H       1  lig         0.0424
     25 H25        27.3762   14.6118   33.5402 H       1  lig         0.0357
     26 H26        29.8551   16.8511   34.7215 H       1  lig         0.4072
     27 C1         27.4101   20.4382   34.1734 C.1     1  lig        -0.1335
     28 C2         27.8334   19.2364   34.0963 C.1     1  lig        -0.1688
     29 C3         21.6132   15.3733   30.5974 C.2     1  lig        -0.2674
     30 C4         22.9552   15.4159   31.1067 C.2     1  lig        -0.0292
     31 C5         20.5761   14.9960   31.5941 C.2     1  lig         0.5673
     32 C6         24.0276   15.7111   30.0304 C.3     1  lig        -0.0559
     33 C7         20.9574   14.5245   32.9899 C.3     1  lig        -0.1823
     34 C8         25.2098   16.6078   30.4930 C.3     1  lig        -0.0728
     35 C9         22.2406   15.2787   33.4761 C.3     1  lig        -0.0705
     36 C10        27.9996   17.3910   31.5182 C.3     1  lig        -0.0740
     37 C11        24.9433   15.9551   34.3311 C.3     1  lig        -0.0723
     38 C12        29.0800   17.9045   32.4965 C.3     1  lig        -0.0690
     39 C13        26.1212   16.8849   34.7277 C.3     1  lig        -0.0643
     40 C14        23.4022   15.2815   32.4358 C.3     1  lig        -0.0353
     41 C15        25.6577   16.2890   31.9499 C.3     1  lig        -0.0466
     42 C16        24.5701   16.0322   32.8265 C.3     1  lig        -0.0538
     43 C17        26.8162   17.0085   32.3893 C.3     1  lig        -0.0659
     44 C18        28.4437   17.8889   33.8963 C.3     1  lig         0.2372
     45 C19        27.3519   16.8286   33.8020 C.3     1  lig        -0.0680
     46 C20        28.0204   15.4088   33.9139 C.3     1  lig        -0.0802
     47 O1         19.4556   15.0168   31.2147 O.2     1  lig        -0.5348
     48 O2         29.4325   17.7116   34.9159 O.3     1  lig        -0.5805
@<TRIPOS>BOND
     1    31    47    2
     2    31    33    1
     3    29    31    1
     4    33    35    1
     5     5    33    1
     6     6    33    1
     7    29    30    2
     8     2    29    1
     9    30    32    1
    10    30    40    1
    11    32    34    1
    12     3    32    1
    13     4    32    1
    14    35    40    1
    15    40    42    1
    16    19    40    1
    17     9    35    1
    18    10    35    1
    19    41    42    1
    20    37    42    1
    21    21    42    1
    22    34    41    1
    23    41    43    1
    24    20    41    1
    25     7    34    1
    26     8    34    1
    27    37    39    1
    28    13    37    1
    29    14    37    1
    30    39    45    1
    31    17    39    1
    32    18    39    1
    33    43    45    1
    34    45    46    1
    35    44    45    1
    36    36    43    1
    37    22    43    1
    38    23    46    1
    39    24    46    1
    40    25    46    1
    41    44    48    1
    42    38    44    1
    43    28    44    1
    44    26    48    1
    45    36    38    1
    46    15    38    1
    47    16    38    1
    48    11    36    1
    49    12    36    1
    50    27    28    3
    51     1    27    1
@<TRIPOS>SUBSTRUCTURE
     1 lig         1 TEMP              0 ****  ****    0 ROOT


########## Name:		ligand
########## HA_RMSDs:		14.9482
########## HA_RMSDh:		14.6702
########## HA_RMSDm:		7.7064
########## Cluster Size:	3
##########    Grid Score:          -18.660122
##########      Grid_vdw:          -17.658802
##########       Grid_es:           -1.001319
##########    Int_energy:            3.191864

@<TRIPOS>MOLECULE
ligand
 48 51 1 0 0
SMALL
No Charge or Current Charge


@<TRIPOS>ATOM
      1 H1         16.6816   17.0582   29.3849 H       1  lig         0.1670
      2 H2         23.5868   22.3178   33.0375 H       1  lig         0.1473
      3 H3         21.3914   22.9778   32.4762 H       1  lig         0.0559
      4 H4         20.6282   22.9935   34.0489 H       1  lig         0.0575
      5 H5         23.4368   19.6079   35.9546 H       1  lig         0.0688
      6 H6         24.1710   18.4103   34.8900 H       1  lig         0.0740
      7 H7         19.7101   21.6044   31.5269 H       1  lig         0.0477
      8 H8         18.8309   22.7611   32.5195 H       1  lig         0.0465
      9 H9         21.6784   18.1620   35.1748 H       1  lig         0.0495
     10 H10        22.1803   18.3102   33.4899 H       1  lig         0.0527
     11 H11        16.8052   21.7317   31.3433 H       1  lig         0.0459
     12 H12        16.3557   22.0758   33.0272 H       1  lig         0.0459
     13 H13        19.0250   18.5042   35.2969 H       1  lig         0.0438
     14 H14        19.8922   17.5623   34.1179 H       1  lig         0.0425
     15 H15        14.4938   20.8058   32.8722 H       1  lig         0.0681
     16 H16        14.7532   20.5257   31.1900 H       1  lig         0.0571
     17 H17        17.4332   17.1640   34.0543 H       1  lig         0.0423
     18 H18        18.1402   17.6502   32.5392 H       1  lig         0.0489
     19 H19        20.8955   20.3769   35.2523 H       1  lig         0.0634
     20 H20        18.6157   21.1626   34.2558 H       1  lig         0.0564
     21 H21        20.1246   19.3864   32.7112 H       1  lig         0.0555
     22 H22        17.9183   19.9289   31.8590 H       1  lig         0.0551
     23 H23        15.5192   20.2377   34.8145 H       1  lig         0.0433
     24 H24        15.9692   18.6533   35.3861 H       1  lig         0.0424
     25 H25        17.1316   19.9712   35.4738 H       1  lig         0.0357
     26 H26        13.8603   18.2083   32.3056 H       1  lig         0.4072
     27 C1         16.3776   17.6549   30.2173 C.1     1  lig        -0.1335
     28 C2         16.0129   18.3358   31.2336 C.1     1  lig        -0.1688
     29 C3         23.1656   21.4306   33.4957 C.2     1  lig        -0.2674
     30 C4         21.7625   21.2002   33.6968 C.2     1  lig        -0.0292
     31 C5         24.0596   20.3831   34.0565 C.2     1  lig         0.5673
     32 C6         20.8576   22.3514   33.1952 C.3     1  lig        -0.0559
     33 C7         23.5115   19.2596   34.9245 C.3     1  lig        -0.1823
     34 C8         19.5118   21.9124   32.5533 C.3     1  lig        -0.0728
     35 C9         22.0809   18.8550   34.4332 C.3     1  lig        -0.0705
     36 C10        16.5138   21.2850   32.2968 C.3     1  lig        -0.0740
     37 C11        19.2099   18.3994   34.2252 C.3     1  lig        -0.0723
     38 C12        15.2289   20.4378   32.1577 C.3     1  lig        -0.0690
     39 C13        17.8752   18.0134   33.5330 C.3     1  lig        -0.0643
     40 C14        21.1192   20.0654   34.2283 C.3     1  lig        -0.0353
     41 C15        18.8692   20.7046   33.2970 C.3     1  lig        -0.0466
     42 C16        19.8178   19.7295   33.7052 C.3     1  lig        -0.0538
     43 C17        17.5726   20.3290   32.8168 C.3     1  lig        -0.0659
     44 C18        15.6181   18.9935   32.5142 C.3     1  lig         0.2372
     45 C19        16.8342   19.1441   33.4217 C.3     1  lig        -0.0680
     46 C20        16.3393   19.5370   34.8625 C.3     1  lig        -0.0802
     47 O1         25.2164   20.5174   33.8473 O.2     1  lig        -0.5348
     48 O2         14.5024   18.2684   33.0412 O.3     1  lig        -0.5805
@<TRIPOS>BOND
     1    31    47    2
     2    31    33    1
     3    29    31    1
     4    33    35    1
     5     5    33    1
     6     6    33    1
     7    29    30    2
     8     2    29    1
     9    30    32    1
    10    30    40    1
    11    32    34    1
    12     3    32    1
    13     4    32    1
    14    35    40    1
    15    40    42    1
    16    19    40    1
    17     9    35    1
    18    10    35    1
    19    41    42    1
    20    37    42    1
    21    21    42    1
    22    34    41    1
    23    41    43    1
    24    20    41    1
    25     7    34    1
    26     8    34    1
    27    37    39    1
    28    13    37    1
    29    14    37    1
    30    39    45    1
    31    17    39    1
    32    18    39    1
    33    43    45    1
    34    45    46    1
    35    44    45    1
    36    36    43    1
    37    22    43    1
    38    23    46    1
    39    24    46    1
    40    25    46    1
    41    44    48    1
    42    38    44    1
    43    28    44    1
    44    26    48    1
    45    36    38    1
    46    15    38    1
    47    16    38    1
    48    11    36    1
    49    12    36    1
    50    27    28    3
    51     1    27    1
@<TRIPOS>SUBSTRUCTURE
     1 lig         1 TEMP              0 ****  ****    0 ROOT


########## Name:		ligand
########## HA_RMSDs:		16.3739
########## HA_RMSDh:		16.3472
########## HA_RMSDm:		12.9956
########## Cluster Size:	6
##########    Grid Score:          -18.591568
##########      Grid_vdw:          -17.836020
##########       Grid_es:           -0.755548
##########    Int_energy:            3.241957

@<TRIPOS>MOLECULE
ligand
 48 51 1 0 0
SMALL
No Charge or Current Charge


@<TRIPOS>ATOM
      1 H1          7.0120   28.7429   15.0779 H       1  lig         0.1670
      2 H2          8.4810   20.7497   10.9079 H       1  lig         0.1473
      3 H3          7.6337   21.1993   13.0643 H       1  lig         0.0559
      4 H4          5.9294   20.8861   12.8324 H       1  lig         0.0575
      5 H5          5.8803   22.0427    8.1803 H       1  lig         0.0688
      6 H6          7.0746   23.1884    7.5738 H       1  lig         0.0740
      7 H7          7.2480   23.3396   14.0049 H       1  lig         0.0477
      8 H8          6.0187   22.3086   14.7276 H       1  lig         0.0465
      9 H9          5.3084   24.2106    9.0541 H       1  lig         0.0495
     10 H10         6.9541   24.5213    9.6090 H       1  lig         0.0527
     11 H11         5.6282   24.3653   16.1987 H       1  lig         0.0459
     12 H12         4.0536   23.6155   15.8609 H       1  lig         0.0459
     13 H13         3.6180   24.8477   11.0313 H       1  lig         0.0438
     14 H14         5.0036   25.7685   10.5195 H       1  lig         0.0425
     15 H15         2.9397   25.4408   16.5898 H       1  lig         0.0681
     16 H16         4.4019   26.2052   17.0931 H       1  lig         0.0571
     17 H17         3.5208   27.0350   12.0708 H       1  lig         0.0423
     18 H18         5.1842   26.9191   12.5721 H       1  lig         0.0489
     19 H19         4.9412   22.5783   10.7050 H       1  lig         0.0634
     20 H20         4.3950   23.1122   13.1998 H       1  lig         0.0564
     21 H21         6.3956   24.6444   11.9888 H       1  lig         0.0555
     22 H22         5.7617   25.3057   14.2358 H       1  lig         0.0551
     23 H23         1.9915   24.8329   14.6205 H       1  lig         0.0433
     24 H24         1.6929   25.8098   13.2076 H       1  lig         0.0424
     25 H25         2.4362   24.2252   13.0272 H       1  lig         0.0357
     26 H26         2.4028   27.8570   14.2930 H       1  lig         0.4072
     27 C1          6.0718   28.2355   15.0740 C.1     1  lig        -0.1335
     28 C2          4.9669   27.5964   15.0609 C.1     1  lig        -0.1688
     29 C3          7.7938   21.4928   10.5209 C.2     1  lig        -0.2674
     30 C4          6.7604   22.1307   11.2873 C.2     1  lig        -0.0292
     31 C5          7.8166   21.8522    9.0781 C.2     1  lig         0.5673
     32 C6          6.6924   21.6651   12.7619 C.3     1  lig        -0.0559
     33 C7          6.7105   22.6926    8.4565 C.3     1  lig        -0.1823
     34 C8          6.3420   22.7708   13.7965 C.3     1  lig        -0.0728
     35 C9          6.1924   23.7446    9.4941 C.3     1  lig        -0.0705
     36 C10         4.6642   24.5021   15.7031 C.3     1  lig        -0.0740
     37 C11         4.5673   25.2647   11.3760 C.3     1  lig        -0.0723
     38 C12         3.9232   25.7486   16.2370 C.3     1  lig        -0.0690
     39 C13         4.2675   26.3397   12.4549 C.3     1  lig        -0.0643
     40 C14         5.8605   23.1399   10.8926 C.3     1  lig        -0.0353
     41 C15         5.2696   23.7638   13.2590 C.3     1  lig        -0.0466
     42 C16         5.4516   24.0975   11.8905 C.3     1  lig        -0.0538
     43 C17         4.8269   24.7378   14.2120 C.3     1  lig        -0.0659
     44 C18         3.7678   26.7074   15.0449 C.3     1  lig         0.2372
     45 C19         3.8072   25.7975   13.8219 C.3     1  lig        -0.0680
     46 C20         2.4002   25.1123   13.6610 C.3     1  lig        -0.0802
     47 O1          8.6984   21.3898    8.4390 O.2     1  lig        -0.5348
     48 O2          2.6147   27.5419   15.1946 O.3     1  lig        -0.5805
@<TRIPOS>BOND
     1    31    47    2
     2    31    33    1
     3    29    31    1
     4    33    35    1
     5     5    33    1
     6     6    33    1
     7    29    30    2
     8     2    29    1
     9    30    32    1
    10    30    40    1
    11    32    34    1
    12     3    32    1
    13     4    32    1
    14    35    40    1
    15    40    42    1
    16    19    40    1
    17     9    35    1
    18    10    35    1
    19    41    42    1
    20    37    42    1
    21    21    42    1
    22    34    41    1
    23    41    43    1
    24    20    41    1
    25     7    34    1
    26     8    34    1
    27    37    39    1
    28    13    37    1
    29    14    37    1
    30    39    45    1
    31    17    39    1
    32    18    39    1
    33    43    45    1
    34    45    46    1
    35    44    45    1
    36    36    43    1
    37    22    43    1
    38    23    46    1
    39    24    46    1
    40    25    46    1
    41    44    48    1
    42    38    44    1
    43    28    44    1
    44    26    48    1
    45    36    38    1
    46    15    38    1
    47    16    38    1
    48    11    36    1
    49    12    36    1
    50    27    28    3
    51     1    27    1
@<TRIPOS>SUBSTRUCTURE
     1 lig         1 TEMP              0 ****  ****    0 ROOT


########## Name:		ligand
########## HA_RMSDs:		16.6291
########## HA_RMSDh:		16.4580
########## HA_RMSDm:		10.9080
########## Cluster Size:	2
##########    Grid Score:          -18.486237
##########      Grid_vdw:          -19.397390
##########       Grid_es:            0.911154
##########    Int_energy:            3.289845

@<TRIPOS>MOLECULE
ligand
 48 51 1 0 0
SMALL
No Charge or Current Charge


@<TRIPOS>ATOM
      1 H1         25.4660   17.7242   36.8512 H       1  lig         0.1670
      2 H2         18.7973   16.6149   30.7521 H       1  lig         0.1473
      3 H3         21.0099   15.7944   30.7151 H       1  lig         0.0559
      4 H4         20.7584   14.1181   31.1430 H       1  lig         0.0575
      5 H5         16.8112   14.8982   33.7494 H       1  lig         0.0688
      6 H6         16.5915   16.4709   34.5144 H       1  lig         0.0740
      7 H7         22.6554   16.1130   32.3899 H       1  lig         0.0477
      8 H8         23.0254   14.5383   31.6974 H       1  lig         0.0465
      9 H9         18.4120   15.0594   35.5388 H       1  lig         0.0495
     10 H10        18.9675   16.6515   35.0198 H       1  lig         0.0527
     11 H11        25.1384   14.7755   33.1207 H       1  lig         0.0459
     12 H12        24.6295   13.0739   33.1591 H       1  lig         0.0459
     13 H13        20.5597   13.5373   36.0322 H       1  lig         0.0438
     14 H14        20.3415   15.1994   36.5004 H       1  lig         0.0425
     15 H15        25.9988   12.6219   34.8982 H       1  lig         0.0681
     16 H16        26.6727   14.2093   34.8569 H       1  lig         0.0571
     17 H17        22.3014   14.1321   37.6091 H       1  lig         0.0423
     18 H18        22.6568   15.5938   36.7322 H       1  lig         0.0489
     19 H19        19.4025   13.9901   33.6948 H       1  lig         0.0634
     20 H20        21.9481   13.4496   33.5058 H       1  lig         0.0564
     21 H21        21.2623   15.9638   34.5185 H       1  lig         0.0555
     22 H22        23.6243   15.4090   34.5564 H       1  lig         0.0551
     23 H23        23.9851   11.6989   35.3878 H       1  lig         0.0433
     24 H24        23.0175   11.8945   36.8249 H       1  lig         0.0424
     25 H25        22.2620   12.0385   35.2424 H       1  lig         0.0357
     26 H26        26.3922   13.4098   37.3923 H       1  lig         0.4072
     27 C1         25.3735   16.6674   36.7243 C.1     1  lig        -0.1335
     28 C2         25.2323   15.4109   36.5499 C.1     1  lig        -0.1688
     29 C3         18.7252   16.2744   31.7783 C.2     1  lig        -0.2674
     30 C4         19.7110   15.4715   32.4460 C.2     1  lig        -0.0292
     31 C5         17.4996   16.5519   32.5733 C.2     1  lig         0.5673
     32 C6         20.9312   15.1113   31.5645 C.3     1  lig        -0.0559
     33 C7         17.2603   15.8772   33.9163 C.3     1  lig        -0.1823
     34 C8         22.3015   15.0864   32.2977 C.3     1  lig        -0.0728
     35 C9         18.6220   15.6769   34.6630 C.3     1  lig        -0.0705
     36 C10        24.7649   13.9714   33.7591 C.3     1  lig        -0.0740
     37 C11        20.9862   14.5380   35.9305 C.3     1  lig        -0.0723
     38 C12        25.7329   13.6778   34.9273 C.3     1  lig        -0.0690
     39 C13        22.3849   14.5453   36.6036 C.3     1  lig        -0.0643
     40 C14        19.7340   15.0284   33.7829 C.3     1  lig        -0.0353
     41 C15        22.1928   14.4898   33.7320 C.3     1  lig        -0.0466
     42 C16        21.0207   14.8997   34.4215 C.3     1  lig        -0.0538
     43 C17        23.4446   14.3395   34.4125 C.3     1  lig        -0.0659
     44 C18        24.9594   13.9805   36.2213 C.3     1  lig         0.2372
     45 C19        23.4950   13.8024   35.8352 C.3     1  lig        -0.0680
     46 C20        23.1668   12.2640   35.8084 C.3     1  lig        -0.0802
     47 O1         16.7010   17.2648   32.0695 O.2     1  lig        -0.5348
     48 O2         25.4420   13.1912   37.3133 O.3     1  lig        -0.5805
@<TRIPOS>BOND
     1    31    47    2
     2    31    33    1
     3    29    31    1
     4    33    35    1
     5     5    33    1
     6     6    33    1
     7    29    30    2
     8     2    29    1
     9    30    32    1
    10    30    40    1
    11    32    34    1
    12     3    32    1
    13     4    32    1
    14    35    40    1
    15    40    42    1
    16    19    40    1
    17     9    35    1
    18    10    35    1
    19    41    42    1
    20    37    42    1
    21    21    42    1
    22    34    41    1
    23    41    43    1
    24    20    41    1
    25     7    34    1
    26     8    34    1
    27    37    39    1
    28    13    37    1
    29    14    37    1
    30    39    45    1
    31    17    39    1
    32    18    39    1
    33    43    45    1
    34    45    46    1
    35    44    45    1
    36    36    43    1
    37    22    43    1
    38    23    46    1
    39    24    46    1
    40    25    46    1
    41    44    48    1
    42    38    44    1
    43    28    44    1
    44    26    48    1
    45    36    38    1
    46    15    38    1
    47    16    38    1
    48    11    36    1
    49    12    36    1
    50    27    28    3
    51     1    27    1
@<TRIPOS>SUBSTRUCTURE
     1 lig         1 TEMP              0 ****  ****    0 ROOT


########## Name:		ligand
########## HA_RMSDs:		14.9564
########## HA_RMSDh:		14.7338
########## HA_RMSDm:		10.3296
########## Cluster Size:	1
##########    Grid Score:          -18.479326
##########      Grid_vdw:          -18.524857
##########       Grid_es:            0.045529
##########    Int_energy:            3.010427

@<TRIPOS>MOLECULE
ligand
 48 51 1 0 0
SMALL
No Charge or Current Charge


@<TRIPOS>ATOM
      1 H1         21.8876   15.7145   36.7624 H       1  lig         0.1670
      2 H2         16.1139   22.6484   33.5038 H       1  lig         0.1473
      3 H3         18.3064   22.0437   32.8731 H       1  lig         0.0559
      4 H4         18.0073   21.1935   31.3751 H       1  lig         0.0575
      5 H5         13.6168   19.6865   32.5727 H       1  lig         0.0688
      6 H6         13.2246   19.4711   34.2775 H       1  lig         0.0740
      7 H7         19.5905   20.2698   33.7779 H       1  lig         0.0477
      8 H8         20.1161   20.3894   32.1029 H       1  lig         0.0465
      9 H9         14.8377   17.7667   33.3564 H       1  lig         0.0495
     10 H10        15.4541   18.6230   34.7705 H       1  lig         0.0527
     11 H11        21.9089   18.7436   32.8926 H       1  lig         0.0459
     12 H12        21.4332   18.2978   31.2401 H       1  lig         0.0459
     13 H13        16.8765   16.4692   32.2021 H       1  lig         0.0438
     14 H14        16.5417   16.5586   33.9077 H       1  lig         0.0425
     15 H15        22.4481   16.2863   31.4064 H       1  lig         0.0681
     16 H16        23.0882   16.6715   32.9613 H       1  lig         0.0571
     17 H17        18.2691   14.8514   33.3499 H       1  lig         0.0423
     18 H18        18.7608   16.0410   34.5223 H       1  lig         0.0489
     19 H19        16.1857   19.0045   31.8813 H       1  lig         0.0634
     20 H20        18.7291   18.5651   31.4994 H       1  lig         0.0564
     21 H21        17.8146   18.4784   34.1401 H       1  lig         0.0555
     22 H22        20.1344   17.8548   33.7959 H       1  lig         0.0551
     23 H23        20.3947   15.9168   30.5153 H       1  lig         0.0433
     24 H24        19.1639   14.7995   31.0409 H       1  lig         0.0424
     25 H25        18.7265   16.4631   30.6705 H       1  lig         0.0357
     26 H26        22.3257   14.0966   32.9268 H       1  lig         0.4072
     27 C1         21.6146   15.7072   35.7295 C.1     1  lig        -0.1335
     28 C2         21.3257   15.6952   34.4862 C.1     1  lig        -0.1688
     29 C3         15.8507   21.5978   33.4662 C.2     1  lig        -0.2674
     30 C4         16.7030   20.5574   32.9629 C.2     1  lig        -0.0292
     31 C5         14.4895   21.1537   33.8677 C.2     1  lig         0.5673
     32 C6         18.0771   21.0594   32.4573 C.3     1  lig        -0.0559
     33 C7         14.0072   19.7375   33.5890 C.3     1  lig        -0.1823
     34 C8         19.2798   20.1175   32.7445 C.3     1  lig        -0.0728
     35 C9         15.2019   18.7328   33.7117 C.3     1  lig        -0.0705
     36 C10        21.4336   17.9747   32.2790 C.3     1  lig        -0.0740
     37 C11        17.2964   16.7828   33.1608 C.3     1  lig        -0.0723
     38 C12        22.1624   16.6178   32.4039 C.3     1  lig        -0.0690
     39 C13        18.5380   15.9017   33.4636 C.3     1  lig        -0.0643
     40 C14        16.4749   19.1680   32.9231 C.3     1  lig        -0.0353
     41 C15        18.9064   18.6151   32.5761 C.3     1  lig        -0.0466
     42 C16        17.6158   18.2994   33.0779 C.3     1  lig        -0.0538
     43 C17        20.0054   17.7071   32.7196 C.3     1  lig        -0.0659
     44 C18        21.1476   15.6314   33.0055 C.3     1  lig         0.2372
     45 C19        19.7891   16.2046   32.6166 C.3     1  lig        -0.0680
     46 C20        19.5004   15.8356   31.1147 C.3     1  lig        -0.0802
     47 O1         13.7908   21.9801   34.3458 O.2     1  lig        -0.5348
     48 O2         21.4240   14.2872   32.5990 O.3     1  lig        -0.5805
@<TRIPOS>BOND
     1    31    47    2
     2    31    33    1
     3    29    31    1
     4    33    35    1
     5     5    33    1
     6     6    33    1
     7    29    30    2
     8     2    29    1
     9    30    32    1
    10    30    40    1
    11    32    34    1
    12     3    32    1
    13     4    32    1
    14    35    40    1
    15    40    42    1
    16    19    40    1
    17     9    35    1
    18    10    35    1
    19    41    42    1
    20    37    42    1
    21    21    42    1
    22    34    41    1
    23    41    43    1
    24    20    41    1
    25     7    34    1
    26     8    34    1
    27    37    39    1
    28    13    37    1
    29    14    37    1
    30    39    45    1
    31    17    39    1
    32    18    39    1
    33    43    45    1
    34    45    46    1
    35    44    45    1
    36    36    43    1
    37    22    43    1
    38    23    46    1
    39    24    46    1
    40    25    46    1
    41    44    48    1
    42    38    44    1
    43    28    44    1
    44    26    48    1
    45    36    38    1
    46    15    38    1
    47    16    38    1
    48    11    36    1
    49    12    36    1
    50    27    28    3
    51     1    27    1
@<TRIPOS>SUBSTRUCTURE
     1 lig         1 TEMP              0 ****  ****    0 ROOT


########## Name:		ligand
########## HA_RMSDs:		16.1708
########## HA_RMSDh:		16.1708
########## HA_RMSDm:		12.7153
########## Cluster Size:	3
##########    Grid Score:          -18.401567
##########      Grid_vdw:          -17.359484
##########       Grid_es:           -1.042084
##########    Int_energy:            3.254318

@<TRIPOS>MOLECULE
ligand
 48 51 1 0 0
SMALL
No Charge or Current Charge


@<TRIPOS>ATOM
      1 H1          5.7338   27.2301   13.7567 H       1  lig         0.1670
      2 H2          9.3013   21.4293    7.3961 H       1  lig         0.1473
      3 H3          9.2531   21.1651    9.7409 H       1  lig         0.0559
      4 H4          7.9301   20.0380    9.9292 H       1  lig         0.0575
      5 H5          5.5695   21.4423    6.0002 H       1  lig         0.0688
      6 H6          5.7839   23.0931    5.4209 H       1  lig         0.0740
      7 H7          8.3489   22.6937   11.3093 H       1  lig         0.0477
      8 H8          8.0999   21.1111   12.0370 H       1  lig         0.0465
      9 H9          4.4769   22.9042    7.5684 H       1  lig         0.0495
     10 H10         5.8791   23.9678    7.6922 H       1  lig         0.0527
     11 H11         7.4349   22.5152   14.0699 H       1  lig         0.0459
     12 H12         6.3707   21.0944   14.0026 H       1  lig         0.0459
     13 H13         3.5960   22.3797   10.0425 H       1  lig         0.0438
     14 H14         4.1020   23.9294    9.4327 H       1  lig         0.0425
     15 H15         4.9386   21.9983   15.4979 H       1  lig         0.0681
     16 H16         5.9698   23.3573   15.7532 H       1  lig         0.0571
     17 H17         2.9415   24.0882   11.6321 H       1  lig         0.0423
     18 H18         4.5281   24.8037   11.5830 H       1  lig         0.0489
     19 H19         5.5516   21.1682    8.7328 H       1  lig         0.0634
     20 H20         5.8396   21.0992   11.3251 H       1  lig         0.0564
     21 H21         6.2964   23.5545   10.0682 H       1  lig         0.0555
     22 H22         6.3606   23.5721   12.4939 H       1  lig         0.0551
     23 H23         3.6832   21.1794   13.7948 H       1  lig         0.0433
     24 H24         2.4576   21.9905   12.8569 H       1  lig         0.0424
     25 H25         3.6960   21.0465   12.0377 H       1  lig         0.0357
     26 H26         3.4200   24.1082   15.7785 H       1  lig         0.4072
     27 C1          5.4195   26.2241   13.9313 C.1     1  lig        -0.1335
     28 C2          5.0146   25.0276   14.1154 C.1     1  lig        -0.1688
     29 C3          8.2648   21.7418    7.4449 C.2     1  lig        -0.2674
     30 C4          7.4437   21.6747    8.6211 C.2     1  lig        -0.0292
     31 C5          7.5631   22.1976    6.2156 C.2     1  lig         0.5673
     32 C6          8.1689   21.1021    9.8628 C.3     1  lig        -0.0559
     33 C7          6.0547   22.3983    6.1964 C.3     1  lig        -0.1823
     34 C8          7.7927   21.7608   11.2195 C.3     1  lig        -0.0728
     35 C9          5.5684   22.9241    7.5889 C.3     1  lig        -0.0705
     36 C10         6.4047   22.1794   13.9298 C.3     1  lig        -0.0740
     37 C11         4.3080   23.1929   10.2027 C.3     1  lig        -0.0723
     38 C12         5.4565   22.8034   14.9784 C.3     1  lig        -0.0690
     39 C13         4.0033   23.8474   11.5769 C.3     1  lig        -0.0643
     40 C14         6.1138   22.1039    8.7978 C.3     1  lig        -0.0353
     41 C15         6.2756   22.1006   11.3102 C.3     1  lig        -0.0466
     42 C16         5.7425   22.6099   10.0963 C.3     1  lig        -0.0538
     43 C17         5.8523   22.6073   12.5817 C.3     1  lig        -0.0659
     44 C18         4.4401   23.6522   14.1968 C.3     1  lig         0.2372
     45 C19         4.4050   23.0168   12.8111 C.3     1  lig        -0.0680
     46 C20         3.5155   21.7208   12.8759 C.3     1  lig        -0.0802
     47 O1          8.2329   22.3231    5.2485 O.2     1  lig        -0.5348
     48 O2          3.1953   23.7494   14.8966 O.3     1  lig        -0.5805
@<TRIPOS>BOND
     1    31    47    2
     2    31    33    1
     3    29    31    1
     4    33    35    1
     5     5    33    1
     6     6    33    1
     7    29    30    2
     8     2    29    1
     9    30    32    1
    10    30    40    1
    11    32    34    1
    12     3    32    1
    13     4    32    1
    14    35    40    1
    15    40    42    1
    16    19    40    1
    17     9    35    1
    18    10    35    1
    19    41    42    1
    20    37    42    1
    21    21    42    1
    22    34    41    1
    23    41    43    1
    24    20    41    1
    25     7    34    1
    26     8    34    1
    27    37    39    1
    28    13    37    1
    29    14    37    1
    30    39    45    1
    31    17    39    1
    32    18    39    1
    33    43    45    1
    34    45    46    1
    35    44    45    1
    36    36    43    1
    37    22    43    1
    38    23    46    1
    39    24    46    1
    40    25    46    1
    41    44    48    1
    42    38    44    1
    43    28    44    1
    44    26    48    1
    45    36    38    1
    46    15    38    1
    47    16    38    1
    48    11    36    1
    49    12    36    1
    50    27    28    3
    51     1    27    1
@<TRIPOS>SUBSTRUCTURE
     1 lig         1 TEMP              0 ****  ****    0 ROOT


########## Name:		ligand
########## HA_RMSDs:		16.9735
########## HA_RMSDh:		16.5873
########## HA_RMSDm:		14.1331
########## Cluster Size:	4
##########    Grid Score:          -18.135790
##########      Grid_vdw:          -17.317259
##########       Grid_es:           -0.818531
##########    Int_energy:            3.008867

@<TRIPOS>MOLECULE
ligand
 48 51 1 0 0
SMALL
No Charge or Current Charge


@<TRIPOS>ATOM
      1 H1         10.0161   20.1615    9.2215 H       1  lig         0.1670
      2 H2          5.3090   27.3550   13.4949 H       1  lig         0.1473
      3 H3          5.1648   26.5102   11.2959 H       1  lig         0.0559
      4 H4          3.6829   25.5868   11.3825 H       1  lig         0.0575
      5 H5          4.0472   24.5740   16.0541 H       1  lig         0.0688
      6 H6          5.6469   24.5165   16.7920 H       1  lig         0.0740
      7 H7          6.3995   24.6955   10.4034 H       1  lig         0.0477
      8 H8          4.8608   24.6478    9.5511 H       1  lig         0.0465
      9 H9          5.1582   22.6115   15.2147 H       1  lig         0.0495
     10 H10         6.6217   23.5062   14.8015 H       1  lig         0.0527
     11 H11         6.0788   22.9059    8.1268 H       1  lig         0.0459
     12 H12         4.3895   22.3893    8.3139 H       1  lig         0.0459
     13 H13         4.5064   21.0554   13.1347 H       1  lig         0.0438
     14 H14         6.1028   21.2955   13.7853 H       1  lig         0.0425
     15 H15         4.8598   20.3106    7.5643 H       1  lig         0.0681
     16 H16         6.4899   20.7452    7.2041 H       1  lig         0.0571
     17 H17         5.9927   19.4030   12.1679 H       1  lig         0.0423
     18 H18         7.1775   20.6231   11.7947 H       1  lig         0.0489
     19 H19         3.9234   23.6139   13.4840 H       1  lig         0.0634
     20 H20         4.0847   22.9190   10.9742 H       1  lig         0.0564
     21 H21         6.4880   23.1032   12.3911 H       1  lig         0.0555
     22 H22         6.6505   22.2484   10.1258 H       1  lig         0.0551
     23 H23         3.5935   20.0673    9.4308 H       1  lig         0.0433
     24 H24         3.9171   19.1066   10.8493 H       1  lig         0.0424
     25 H25         3.3812   20.7726   11.0318 H       1  lig         0.0357
     26 H26         6.2314   18.0512    9.8135 H       1  lig         0.4072
     27 C1          8.9507   20.1119    9.2843 C.1     1  lig        -0.1335
     28 C2          7.6766   20.0438    9.3217 C.1     1  lig        -0.1688
     29 C3          5.2731   26.3327   13.8527 C.2     1  lig        -0.2674
     30 C4          5.0058   25.1861   13.0305 C.2     1  lig        -0.0292
     31 C5          5.4145   26.0437   15.3045 C.2     1  lig         0.5673
     32 C6          4.7623   25.5239   11.5398 C.3     1  lig        -0.0559
     33 C7          5.1173   24.6611   15.8667 C.3     1  lig        -0.1823
     34 C8          5.3338   24.4993   10.5202 C.3     1  lig        -0.0728
     35 C9          5.5296   23.5632   14.8292 C.3     1  lig        -0.0705
     36 C10         5.4224   22.1419    8.5499 C.3     1  lig        -0.0740
     37 C11         5.5127   21.3966   12.8801 C.3     1  lig        -0.0723
     38 C12         5.7610   20.7366    8.0036 C.3     1  lig        -0.0690
     39 C13         6.1042   20.4300   11.8194 C.3     1  lig        -0.0643
     40 C14         4.9923   23.8238   13.3887 C.3     1  lig        -0.0353
     41 C15         5.1710   23.0289   11.0065 C.3     1  lig        -0.0466
     42 C16         5.4181   22.8682   12.3959 C.3     1  lig        -0.0538
     43 C17         5.5793   22.0372   10.0565 C.3     1  lig        -0.0659
     44 C18         6.1956   19.8917    9.2127 C.3     1  lig         0.2372
     45 C19         5.5121   20.5571   10.4024 C.3     1  lig        -0.0680
     46 C20         4.0039   20.1104   10.4286 C.3     1  lig        -0.0802
     47 O1          5.6989   26.9621   15.9942 O.2     1  lig        -0.5348
     48 O2          5.9226   18.5026    9.0025 O.3     1  lig        -0.5805
@<TRIPOS>BOND
     1    31    47    2
     2    31    33    1
     3    29    31    1
     4    33    35    1
     5     5    33    1
     6     6    33    1
     7    29    30    2
     8     2    29    1
     9    30    32    1
    10    30    40    1
    11    32    34    1
    12     3    32    1
    13     4    32    1
    14    35    40    1
    15    40    42    1
    16    19    40    1
    17     9    35    1
    18    10    35    1
    19    41    42    1
    20    37    42    1
    21    21    42    1
    22    34    41    1
    23    41    43    1
    24    20    41    1
    25     7    34    1
    26     8    34    1
    27    37    39    1
    28    13    37    1
    29    14    37    1
    30    39    45    1
    31    17    39    1
    32    18    39    1
    33    43    45    1
    34    45    46    1
    35    44    45    1
    36    36    43    1
    37    22    43    1
    38    23    46    1
    39    24    46    1
    40    25    46    1
    41    44    48    1
    42    38    44    1
    43    28    44    1
    44    26    48    1
    45    36    38    1
    46    15    38    1
    47    16    38    1
    48    11    36    1
    49    12    36    1
    50    27    28    3
    51     1    27    1
@<TRIPOS>SUBSTRUCTURE
     1 lig         1 TEMP              0 ****  ****    0 ROOT


########## Name:		ligand
########## HA_RMSDs:		17.3649
########## HA_RMSDh:		16.8435
########## HA_RMSDm:		13.7663
########## Cluster Size:	2
##########    Grid Score:          -18.047510
##########      Grid_vdw:          -18.887209
##########       Grid_es:            0.839698
##########    Int_energy:            3.018518

@<TRIPOS>MOLECULE
ligand
 48 51 1 0 0
SMALL
No Charge or Current Charge


@<TRIPOS>ATOM
      1 H1          9.7237   24.5557    6.6991 H       1  lig         0.1670
      2 H2          3.2217   24.9279   13.7010 H       1  lig         0.1473
      3 H3          2.9844   24.5063   11.3910 H       1  lig         0.0559
      4 H4          2.7605   22.7725   11.3827 H       1  lig         0.0575
      5 H5          5.2977   21.9643   15.3692 H       1  lig         0.0688
      6 H6          6.5729   23.0973   15.8127 H       1  lig         0.0740
      7 H7          4.7300   24.4219    9.7910 H       1  lig         0.0477
      8 H8          3.5280   23.2821    9.1976 H       1  lig         0.0465
      9 H9          7.0905   21.6867   13.7883 H       1  lig         0.0495
     10 H10         7.2122   23.4204   13.4846 H       1  lig         0.0527
     11 H11         5.0302   23.2825    7.1264 H       1  lig         0.0459
     12 H12         4.4237   21.6312    7.3738 H       1  lig         0.0459
     13 H13         7.0881   20.4164   11.4306 H       1  lig         0.0438
     14 H14         8.1199   21.7407   11.8897 H       1  lig         0.0425
     15 H15         5.9361   20.7752    5.9303 H       1  lig         0.0681
     16 H16         6.5056   22.3464    5.5029 H       1  lig         0.0571
     17 H17         8.8474   20.6357    9.7781 H       1  lig         0.0423
     18 H18         8.5800   22.3519    9.6571 H       1  lig         0.0489
     19 H19         5.0285   21.5233   12.6718 H       1  lig         0.0634
     20 H20         4.7664   21.4628   10.0765 H       1  lig         0.0564
     21 H21         6.5950   23.3030   11.1191 H       1  lig         0.0555
     22 H22         6.5308   23.1198    8.7002 H       1  lig         0.0551
     23 H23         5.9676   19.4570    7.7765 H       1  lig         0.0433
     24 H24         7.3335   18.9701    8.7443 H       1  lig         0.0424
     25 H25         5.8811   19.5741    9.5327 H       1  lig         0.0357
     26 H26         7.7680   19.5578    6.5324 H       1  lig         0.4072
     27 C1          9.1523   23.6738    6.8917 C.1     1  lig        -0.1335
     28 C2          8.4557   22.6219    7.0858 C.1     1  lig        -0.1688
     29 C3          4.0490   24.2280   13.7083 C.2     1  lig        -0.2674
     30 C4          4.4203   23.3873   12.6049 C.2     1  lig        -0.0292
     31 C5          4.8364   24.0148   14.9516 C.2     1  lig         0.5673
     32 C6          3.5221   23.5555   11.3556 C.3     1  lig        -0.0559
     33 C7          5.8293   22.8675   15.0700 C.3     1  lig        -0.1823
     34 C8          4.2547   23.4612    9.9880 C.3     1  lig        -0.0728
     35 C9          6.5101   22.6057   13.6844 C.3     1  lig        -0.0705
     36 C10         5.3147   22.2555    7.3670 C.3     1  lig        -0.0740
     37 C11         7.3768   21.4349   11.1603 C.3     1  lig        -0.0723
     38 C12         6.3365   21.6966    6.3513 C.3     1  lig        -0.0690
     39 C13         8.0664   21.3963    9.7702 C.3     1  lig        -0.0643
     40 C14         5.5034   22.4930   12.4989 C.3     1  lig        -0.0353
     41 C15         5.3667   22.3710    9.9879 C.3     1  lig        -0.0466
     42 C16         6.1065   22.3259   11.1994 C.3     1  lig        -0.0538
     43 C17         5.9993   22.1637    8.7192 C.3     1  lig        -0.0659
     44 C18         7.6168   21.3886    7.1451 C.3     1  lig         0.2372
     45 C19         7.1291   21.1555    8.5710 C.3     1  lig        -0.0680
     46 C20         6.5292   19.7042    8.6649 C.3     1  lig        -0.0802
     47 O1          4.5928   24.7396   15.8544 O.2     1  lig        -0.5348
     48 O2          8.3659   20.3321    6.5359 O.3     1  lig        -0.5805
@<TRIPOS>BOND
     1    31    47    2
     2    31    33    1
     3    29    31    1
     4    33    35    1
     5     5    33    1
     6     6    33    1
     7    29    30    2
     8     2    29    1
     9    30    32    1
    10    30    40    1
    11    32    34    1
    12     3    32    1
    13     4    32    1
    14    35    40    1
    15    40    42    1
    16    19    40    1
    17     9    35    1
    18    10    35    1
    19    41    42    1
    20    37    42    1
    21    21    42    1
    22    34    41    1
    23    41    43    1
    24    20    41    1
    25     7    34    1
    26     8    34    1
    27    37    39    1
    28    13    37    1
    29    14    37    1
    30    39    45    1
    31    17    39    1
    32    18    39    1
    33    43    45    1
    34    45    46    1
    35    44    45    1
    36    36    43    1
    37    22    43    1
    38    23    46    1
    39    24    46    1
    40    25    46    1
    41    44    48    1
    42    38    44    1
    43    28    44    1
    44    26    48    1
    45    36    38    1
    46    15    38    1
    47    16    38    1
    48    11    36    1
    49    12    36    1
    50    27    28    3
    51     1    27    1
@<TRIPOS>SUBSTRUCTURE
     1 lig         1 TEMP              0 ****  ****    0 ROOT


########## Name:		ligand
########## HA_RMSDs:		16.3279
########## HA_RMSDh:		16.1333
########## HA_RMSDm:		10.7979
########## Cluster Size:	2
##########    Grid Score:          -18.030544
##########      Grid_vdw:          -17.204510
##########       Grid_es:           -0.826034
##########    Int_energy:            3.182668

@<TRIPOS>MOLECULE
ligand
 48 51 1 0 0
SMALL
No Charge or Current Charge


@<TRIPOS>ATOM
      1 H1         27.0081   19.2736   35.5279 H       1  lig         0.1670
      2 H2         20.8186   15.1909   29.6997 H       1  lig         0.1473
      3 H3         23.1693   14.9802   29.7133 H       1  lig         0.0559
      4 H4         23.3674   13.4291   30.4951 H       1  lig         0.0575
      5 H5         19.3489   13.7099   33.0941 H       1  lig         0.0688
      6 H6         18.7211   15.2996   33.5246 H       1  lig         0.0740
      7 H7         24.6694   16.0660   31.1915 H       1  lig         0.0477
      8 H8         25.4426   14.5287   30.8240 H       1  lig         0.0465
      9 H9         20.8471   14.6606   34.7195 H       1  lig         0.0495
     10 H10        20.9645   16.1911   33.8496 H       1  lig         0.0527
     11 H11        27.4155   15.6039   32.0479 H       1  lig         0.0459
     12 H12        27.3727   13.8786   32.4689 H       1  lig         0.0459
     13 H13        23.3188   13.8870   35.4011 H       1  lig         0.0438
     14 H14        22.6696   15.4972   35.5231 H       1  lig         0.0425
     15 H15        28.8093   14.1813   34.1860 H       1  lig         0.0681
     16 H16        29.0412   15.8410   33.7770 H       1  lig         0.0571
     17 H17        24.8392   15.2365   36.7207 H       1  lig         0.0423
     18 H18        24.7987   16.5153   35.5397 H       1  lig         0.0489
     19 H19        22.0880   13.5104   33.0879 H       1  lig         0.0634
     20 H20        24.6864   13.6164   32.8763 H       1  lig         0.0564
     21 H21        23.3605   16.0263   33.3777 H       1  lig         0.0555
     22 H22        25.7851   16.1206   33.4006 H       1  lig         0.0551
     23 H23        27.1088   12.8990   34.9676 H       1  lig         0.0433
     24 H24        26.1210   13.1442   36.3831 H       1  lig         0.0424
     25 H25        25.3574   12.7434   34.8494 H       1  lig         0.0357
     26 H26        28.9434   15.6191   36.4710 H       1  lig         0.4072
     27 C1         27.1608   18.2254   35.3885 C.1     1  lig        -0.1335
     28 C2         27.3318   16.9672   35.2583 C.1     1  lig        -0.1688
     29 C3         20.8367   15.0733   30.7768 C.2     1  lig        -0.2674
     30 C4         21.9978   14.7153   31.5422 C.2     1  lig        -0.0292
     31 C5         19.5797   15.1906   31.5625 C.2     1  lig         0.5673
     32 C6         23.2716   14.5001   30.6897 C.3     1  lig        -0.0559
     33 C7         19.5239   14.7836   33.0278 C.3     1  lig        -0.1823
     34 C8         24.5985   14.9881   31.3354 C.3     1  lig        -0.0728
     35 C9         20.8887   15.1070   33.7239 C.3     1  lig        -0.0705
     36 C10        27.2657   14.8883   32.8597 C.3     1  lig        -0.0740
     37 C11        23.4668   14.9174   35.0694 C.3     1  lig        -0.0723
     38 C12        28.2745   15.1135   34.0085 C.3     1  lig        -0.0690
     39 C13        24.8129   15.4300   35.6481 C.3     1  lig        -0.0643
     40 C14        22.1340   14.5927   32.9389 C.3     1  lig        -0.0353
     41 C15        24.6480   14.7080   32.8665 C.3     1  lig        -0.0466
     42 C16        23.4079   14.9410   33.5185 C.3     1  lig        -0.0538
     43 C17        25.8938   15.0359   33.4935 C.3     1  lig        -0.0659
     44 C18        27.4460   15.4788   35.2512 C.3     1  lig         0.2372
     45 C19        26.0810   14.8504   34.9920 C.3     1  lig        -0.0680
     46 C20        26.1697   13.3112   35.3052 C.3     1  lig        -0.0802
     47 O1         18.6225   15.5474   30.9655 O.2     1  lig        -0.5348
     48 O2         28.1172   15.0956   36.4558 O.3     1  lig        -0.5805
@<TRIPOS>BOND
     1    31    47    2
     2    31    33    1
     3    29    31    1
     4    33    35    1
     5     5    33    1
     6     6    33    1
     7    29    30    2
     8     2    29    1
     9    30    32    1
    10    30    40    1
    11    32    34    1
    12     3    32    1
    13     4    32    1
    14    35    40    1
    15    40    42    1
    16    19    40    1
    17     9    35    1
    18    10    35    1
    19    41    42    1
    20    37    42    1
    21    21    42    1
    22    34    41    1
    23    41    43    1
    24    20    41    1
    25     7    34    1
    26     8    34    1
    27    37    39    1
    28    13    37    1
    29    14    37    1
    30    39    45    1
    31    17    39    1
    32    18    39    1
    33    43    45    1
    34    45    46    1
    35    44    45    1
    36    36    43    1
    37    22    43    1
    38    23    46    1
    39    24    46    1
    40    25    46    1
    41    44    48    1
    42    38    44    1
    43    28    44    1
    44    26    48    1
    45    36    38    1
    46    15    38    1
    47    16    38    1
    48    11    36    1
    49    12    36    1
    50    27    28    3
    51     1    27    1
@<TRIPOS>SUBSTRUCTURE
     1 lig         1 TEMP              0 ****  ****    0 ROOT


########## Name:		ligand
########## HA_RMSDs:		16.6534
########## HA_RMSDh:		16.6534
########## HA_RMSDm:		13.3397
########## Cluster Size:	1
##########    Grid Score:          -17.955303
##########      Grid_vdw:          -17.239508
##########       Grid_es:           -0.715795
##########    Int_energy:            3.265995

@<TRIPOS>MOLECULE
ligand
 48 51 1 0 0
SMALL
No Charge or Current Charge


@<TRIPOS>ATOM
      1 H1          5.6172   21.4457   14.8440 H       1  lig         0.1670
      2 H2          9.9066   22.6740    6.6862 H       1  lig         0.1473
      3 H3          9.2478   20.6430    7.6918 H       1  lig         0.0559
      4 H4          7.7938   20.2746    6.7938 H       1  lig         0.0575
      5 H5          6.6662   24.8386    5.8559 H       1  lig         0.0688
      6 H6          7.2143   26.0970    6.9618 H       1  lig         0.0740
      7 H7          8.1739   20.3965    9.7894 H       1  lig         0.0477
      8 H8          7.5641   19.0617    8.8185 H       1  lig         0.0465
      9 H9          5.4032   24.6098    7.8913 H       1  lig         0.0495
     10 H10         6.8484   24.6699    8.9015 H       1  lig         0.0527
     11 H11         6.5900   18.3079   11.0612 H       1  lig         0.0459
     12 H12         5.4129   17.9263    9.7866 H       1  lig         0.0459
     13 H13         3.8806   22.5681    8.7193 H       1  lig         0.0438
     14 H14         4.7043   23.7197    9.7315 H       1  lig         0.0425
     15 H15         3.7744   17.5640   11.2993 H       1  lig         0.0681
     16 H16         4.8659   17.7699   12.6190 H       1  lig         0.0571
     17 H17         3.0630   22.3281   10.9882 H       1  lig         0.0423
     18 H18         4.6865   22.3002   11.6169 H       1  lig         0.0489
     19 H19         5.9393   22.4785    7.0576 H       1  lig         0.0634
     20 H20         5.5659   20.2539    8.3689 H       1  lig         0.0564
     21 H21         6.6115   22.4096    9.8101 H       1  lig         0.0555
     22 H22         6.0746   20.4263   11.1010 H       1  lig         0.0551
     23 H23         2.8909   18.8747    9.6719 H       1  lig         0.0433
     24 H24         2.0424   20.3891    9.8335 H       1  lig         0.0424
     25 H25         3.3223   20.2336    8.6363 H       1  lig         0.0357
     26 H26         2.0175   18.9694   11.6784 H       1  lig         0.4072
     27 C1          5.1416   20.8729   14.0778 C.1     1  lig        -0.1335
     28 C2          4.5539   20.2201   13.1516 C.1     1  lig        -0.1688
     29 C3          8.9356   23.0781    6.9476 C.2     1  lig        -0.2674
     30 C4          7.8469   22.3109    7.4845 C.2     1  lig        -0.0292
     31 C5          8.6202   24.5043    6.6693 C.2     1  lig         0.5673
     32 C6          8.1678   20.8082    7.6709 C.3     1  lig        -0.0559
     33 C7          7.1989   25.0357    6.7861 C.3     1  lig        -0.1823
     34 C8          7.5492   20.1441    8.9328 C.3     1  lig        -0.0728
     35 C9          6.4498   24.3045    7.9506 C.3     1  lig        -0.0705
     36 C10         5.5940   18.5320   10.6721 C.3     1  lig        -0.0740
     37 C11         4.6231   22.6593    9.5156 C.3     1  lig        -0.0723
     38 C12         4.4978   18.2575   11.7261 C.3     1  lig        -0.0690
     39 C13         4.0686   21.9591   10.7852 C.3     1  lig        -0.0643
     40 C14         6.5762   22.7509    7.9038 C.3     1  lig        -0.0353
     41 C15         6.1092   20.6596    9.2254 C.3     1  lig        -0.0466
     42 C16         5.9585   22.0546    9.0055 C.3     1  lig        -0.0538
     43 C17         5.4482   19.9998   10.3119 C.3     1  lig        -0.0659
     44 C18         3.8161   19.6067   12.0080 C.3     1  lig         0.2372
     45 C19         4.0493   20.4190   10.7387 C.3     1  lig        -0.0680
     46 C20         3.0223   19.9460    9.6448 C.3     1  lig        -0.0802
     47 O1          9.5187   25.1726    6.2873 O.2     1  lig        -0.5348
     48 O2          2.4579   19.4275   12.4221 O.3     1  lig        -0.5805
@<TRIPOS>BOND
     1    31    47    2
     2    31    33    1
     3    29    31    1
     4    33    35    1
     5     5    33    1
     6     6    33    1
     7    29    30    2
     8     2    29    1
     9    30    32    1
    10    30    40    1
    11    32    34    1
    12     3    32    1
    13     4    32    1
    14    35    40    1
    15    40    42    1
    16    19    40    1
    17     9    35    1
    18    10    35    1
    19    41    42    1
    20    37    42    1
    21    21    42    1
    22    34    41    1
    23    41    43    1
    24    20    41    1
    25     7    34    1
    26     8    34    1
    27    37    39    1
    28    13    37    1
    29    14    37    1
    30    39    45    1
    31    17    39    1
    32    18    39    1
    33    43    45    1
    34    45    46    1
    35    44    45    1
    36    36    43    1
    37    22    43    1
    38    23    46    1
    39    24    46    1
    40    25    46    1
    41    44    48    1
    42    38    44    1
    43    28    44    1
    44    26    48    1
    45    36    38    1
    46    15    38    1
    47    16    38    1
    48    11    36    1
    49    12    36    1
    50    27    28    3
    51     1    27    1
@<TRIPOS>SUBSTRUCTURE
     1 lig         1 TEMP              0 ****  ****    0 ROOT


########## Name:		ligand
########## HA_RMSDs:		16.8654
########## HA_RMSDh:		16.8509
########## HA_RMSDm:		13.0443
########## Cluster Size:	2
##########    Grid Score:          -17.936859
##########      Grid_vdw:          -18.193926
##########       Grid_es:            0.257066
##########    Int_energy:            3.009629

@<TRIPOS>MOLECULE
ligand
 48 51 1 0 0
SMALL
No Charge or Current Charge


@<TRIPOS>ATOM
      1 H1          7.6582   21.8051   11.6275 H       1  lig         0.1670
      2 H2         13.7923   22.4108    4.2718 H       1  lig         0.1473
      3 H3         12.1040   20.8310    4.7454 H       1  lig         0.0559
      4 H4         10.8460   21.3361    3.6416 H       1  lig         0.0575
      5 H5         12.1139   25.9590    3.5868 H       1  lig         0.0688
      6 H6         12.9465   26.6315    4.9873 H       1  lig         0.0740
      7 H7         10.6512   20.8447    6.6171 H       1  lig         0.0477
      8 H8          9.7041   20.1171    5.3249 H       1  lig         0.0465
      9 H9         10.5167   26.0876    5.3819 H       1  lig         0.0495
     10 H10        11.6056   25.3043    6.5279 H       1  lig         0.0527
     11 H11         8.0803   19.6235    7.2396 H       1  lig         0.0459
     12 H12         7.1302   20.0360    5.7964 H       1  lig         0.0459
     13 H13         8.1063   24.9388    5.5899 H       1  lig         0.0438
     14 H14         9.1485   25.3992    6.9056 H       1  lig         0.0425
     15 H15         5.2471   20.3020    7.0157 H       1  lig         0.0681
     16 H16         6.0343   19.7724    8.4564 H       1  lig         0.0571
     17 H17         6.8464   24.8111    7.6563 H       1  lig         0.0423
     18 H18         8.1246   23.9186    8.4317 H       1  lig         0.0489
     19 H19        10.1794   24.1000    4.1734 H       1  lig         0.0634
     20 H20         8.5926   22.1730    4.9327 H       1  lig         0.0564
     21 H21        10.1995   23.3364    6.9027 H       1  lig         0.0555
     22 H22         8.5836   21.6997    7.6765 H       1  lig         0.0551
     23 H23         5.3874   22.0867    5.6222 H       1  lig         0.0433
     24 H24         5.3038   23.7836    6.0134 H       1  lig         0.0424
     25 H25         6.5792   23.1984    4.9519 H       1  lig         0.0357
     26 H26         4.2815   22.3124    7.4992 H       1  lig         0.4072
     27 C1          7.2638   21.8939   10.6385 C.1     1  lig        -0.1335
     28 C2          6.7695   21.9698    9.4641 C.1     1  lig        -0.1688
     29 C3         13.0797   23.1918    4.5099 C.2     1  lig        -0.2674
     30 C4         11.6807   22.9777    4.7529 C.2     1  lig        -0.0292
     31 C5         13.5052   24.6166    4.5109 C.2     1  lig         0.5673
     32 C6         11.2431   21.4968    4.6468 C.3     1  lig        -0.0559
     33 C7         12.4865   25.7446    4.5883 C.3     1  lig        -0.1823
     34 C8         10.1594   21.0453    5.6654 C.3     1  lig        -0.0728
     35 C9         11.2776   25.3113    5.4844 C.3     1  lig        -0.0705
     36 C10         7.3905   20.3506    6.8048 C.3     1  lig        -0.0740
     37 C11         8.6394   24.5503    6.4609 C.3     1  lig        -0.0723
     38 C12         6.1079   20.4951    7.6545 C.3     1  lig        -0.0690
     39 C13         7.5936   24.0357    7.4861 C.3     1  lig        -0.0643
     40 C14        10.6929   23.9123    5.1204 C.3     1  lig        -0.0353
     41 C15         9.0830   22.1442    5.9082 C.3     1  lig        -0.0466
     42 C16         9.6264   23.4546    5.9767 C.3     1  lig        -0.0538
     43 C17         7.9984   21.7411    6.7531 C.3     1  lig        -0.0659
     44 C18         6.0713   21.9521    8.1448 C.3     1  lig         0.2372
     45 C19         6.8882   22.7184    7.1100 C.3     1  lig        -0.0680
     46 C20         5.9923   22.9545    5.8385 C.3     1  lig        -0.0802
     47 O1         14.6639   24.8154    4.3772 O.2     1  lig        -0.5348
     48 O2          4.7279   22.3936    8.3658 O.3     1  lig        -0.5805
@<TRIPOS>BOND
     1    31    47    2
     2    31    33    1
     3    29    31    1
     4    33    35    1
     5     5    33    1
     6     6    33    1
     7    29    30    2
     8     2    29    1
     9    30    32    1
    10    30    40    1
    11    32    34    1
    12     3    32    1
    13     4    32    1
    14    35    40    1
    15    40    42    1
    16    19    40    1
    17     9    35    1
    18    10    35    1
    19    41    42    1
    20    37    42    1
    21    21    42    1
    22    34    41    1
    23    41    43    1
    24    20    41    1
    25     7    34    1
    26     8    34    1
    27    37    39    1
    28    13    37    1
    29    14    37    1
    30    39    45    1
    31    17    39    1
    32    18    39    1
    33    43    45    1
    34    45    46    1
    35    44    45    1
    36    36    43    1
    37    22    43    1
    38    23    46    1
    39    24    46    1
    40    25    46    1
    41    44    48    1
    42    38    44    1
    43    28    44    1
    44    26    48    1
    45    36    38    1
    46    15    38    1
    47    16    38    1
    48    11    36    1
    49    12    36    1
    50    27    28    3
    51     1    27    1
@<TRIPOS>SUBSTRUCTURE
     1 lig         1 TEMP              0 ****  ****    0 ROOT


########## Name:		ligand
########## HA_RMSDs:		17.0629
########## HA_RMSDh:		17.0533
########## HA_RMSDm:		13.8893
########## Cluster Size:	2
##########    Grid Score:          -17.786179
##########      Grid_vdw:          -15.884907
##########       Grid_es:           -1.901272
##########    Int_energy:            3.219519

@<TRIPOS>MOLECULE
ligand
 48 51 1 0 0
SMALL
No Charge or Current Charge


@<TRIPOS>ATOM
      1 H1          3.5785   25.7792   11.4694 H       1  lig         0.1670
      2 H2          6.2278   18.1617    7.1331 H       1  lig         0.1473
      3 H3          7.3397   19.4433    8.7737 H       1  lig         0.0559
      4 H4          7.1329   18.4378   10.1889 H       1  lig         0.0575
      5 H5          3.0048   16.4689    8.7524 H       1  lig         0.0688
      6 H6          1.9675   17.3718    7.6499 H       1  lig         0.0740
      7 H7          6.4970   21.3738    9.8589 H       1  lig         0.0477
      8 H8          7.5341   20.6080   11.0564 H       1  lig         0.0465
      9 H9          2.0676   18.3086    9.9883 H       1  lig         0.0495
     10 H10         2.4988   19.4824    8.7437 H       1  lig         0.0527
     11 H11         7.1278   22.7932   12.3237 H       1  lig         0.0459
     12 H12         7.1621   21.4645   13.5022 H       1  lig         0.0459
     13 H13         2.7977   19.2971   12.3679 H       1  lig         0.0438
     14 H14         2.0100   20.1695   11.0842 H       1  lig         0.0425
     15 H15         6.2740   22.7700   15.1180 H       1  lig         0.0681
     16 H16         6.3315   24.1650   14.1050 H       1  lig         0.0571
     17 H17         2.0369   21.4290   13.2342 H       1  lig         0.0423
     18 H18         2.7230   22.2753   11.8760 H       1  lig         0.0489
     19 H19         4.3081   17.9958   10.6264 H       1  lig         0.0634
     20 H20         5.6499   19.6528   12.1304 H       1  lig         0.0564
     21 H21         4.0363   20.7751   10.1421 H       1  lig         0.0555
     22 H22         5.1006   22.3414   11.6593 H       1  lig         0.0551
     23 H23         5.1363   20.8075   15.1568 H       1  lig         0.0433
     24 H24         3.4138   20.5454   15.0938 H       1  lig         0.0424
     25 H25         4.4756   19.5968   14.0600 H       1  lig         0.0357
     26 H26         4.1614   22.6342   15.9008 H       1  lig         0.4072
     27 C1          3.7650   25.0474   12.2251 C.1     1  lig        -0.1335
     28 C2          4.0117   24.1548   13.1036 C.1     1  lig        -0.1688
     29 C3          5.3415   18.1975    7.7557 C.2     1  lig        -0.2674
     30 C4          5.3017   18.7144    9.0949 C.2     1  lig        -0.0292
     31 C5          4.0665   17.6018    7.2756 C.2     1  lig         0.5673
     32 C6          6.6652   19.2368    9.6085 C.3     1  lig        -0.0559
     33 C7          2.8834   17.4082    8.2131 C.3     1  lig        -0.1823
     34 C8          6.6004   20.5035   10.5068 C.3     1  lig        -0.0728
     35 C9          2.8323   18.5751    9.2559 C.3     1  lig        -0.0705
     36 C10         6.5359   22.2300   13.0489 C.3     1  lig        -0.0740
     37 C11         2.9019   20.1573   11.7023 C.3     1  lig        -0.0723
     38 C12         5.9581   23.1504   14.1475 C.3     1  lig        -0.0690
     39 C13         2.8973   21.4478   12.5650 C.3     1  lig        -0.0643
     40 C14         4.1968   18.8536    9.9575 C.3     1  lig        -0.0353
     41 C15         5.3786   20.4809   11.4720 C.3     1  lig        -0.0466
     42 C16         4.1980   19.9715   10.8688 C.3     1  lig        -0.0538
     43 C17         5.3313   21.5708   12.4008 C.3     1  lig        -0.0659
     44 C18         4.4274   23.0612   14.0308 C.3     1  lig         0.2372
     45 C19         4.1775   21.7032   13.3838 C.3     1  lig        -0.0680
     46 C20         4.3195   20.5890   14.4854 C.3     1  lig        -0.0802
     47 O1          4.0553   17.2276    6.1532 O.2     1  lig        -0.5348
     48 O2          3.7939   23.3049   15.2908 O.3     1  lig        -0.5805
@<TRIPOS>BOND
     1    31    47    2
     2    31    33    1
     3    29    31    1
     4    33    35    1
     5     5    33    1
     6     6    33    1
     7    29    30    2
     8     2    29    1
     9    30    32    1
    10    30    40    1
    11    32    34    1
    12     3    32    1
    13     4    32    1
    14    35    40    1
    15    40    42    1
    16    19    40    1
    17     9    35    1
    18    10    35    1
    19    41    42    1
    20    37    42    1
    21    21    42    1
    22    34    41    1
    23    41    43    1
    24    20    41    1
    25     7    34    1
    26     8    34    1
    27    37    39    1
    28    13    37    1
    29    14    37    1
    30    39    45    1
    31    17    39    1
    32    18    39    1
    33    43    45    1
    34    45    46    1
    35    44    45    1
    36    36    43    1
    37    22    43    1
    38    23    46    1
    39    24    46    1
    40    25    46    1
    41    44    48    1
    42    38    44    1
    43    28    44    1
    44    26    48    1
    45    36    38    1
    46    15    38    1
    47    16    38    1
    48    11    36    1
    49    12    36    1
    50    27    28    3
    51     1    27    1
@<TRIPOS>SUBSTRUCTURE
     1 lig         1 TEMP              0 ****  ****    0 ROOT


########## Name:		ligand
########## HA_RMSDs:		17.8963
########## HA_RMSDh:		17.3519
########## HA_RMSDm:		13.2450
########## Cluster Size:	4
##########    Grid Score:          -17.720282
##########      Grid_vdw:          -18.286734
##########       Grid_es:            0.566452
##########    Int_energy:            3.007128

@<TRIPOS>MOLECULE
ligand
 48 51 1 0 0
SMALL
No Charge or Current Charge


@<TRIPOS>ATOM
      1 H1         11.4173   26.0491    5.5720 H       1  lig         0.1670
      2 H2          5.6863   24.4840   13.1238 H       1  lig         0.1473
      3 H3          5.2525   25.5286   11.0523 H       1  lig         0.0559
      4 H4          4.3721   24.2716   10.2151 H       1  lig         0.0575
      5 H5          6.4834   20.6291   12.5079 H       1  lig         0.0688
      6 H6          8.1084   20.8544   13.1524 H       1  lig         0.0740
      7 H7          6.7920   25.8184    9.2746 H       1  lig         0.0477
      8 H8          5.2285   25.6490    8.4852 H       1  lig         0.0465
      9 H9          7.9917   20.7452   10.6365 H       1  lig         0.0495
     10 H10         8.7710   22.2087   11.2393 H       1  lig         0.0527
     11 H11         6.5662   26.3436    6.4177 H       1  lig         0.0459
     12 H12         5.3711   25.1255    5.9241 H       1  lig         0.0459
     13 H13         7.4431   21.0918    8.0381 H       1  lig         0.0438
     14 H14         8.9186   21.5309    8.8502 H       1  lig         0.0425
     15 H15         6.3993   24.8075    3.9377 H       1  lig         0.0681
     16 H16         7.5251   26.0765    4.2502 H       1  lig         0.0571
     17 H17         9.1121   21.6400    6.3683 H       1  lig         0.0423
     18 H18         9.5303   23.1085    7.2050 H       1  lig         0.0489
     19 H19         6.0041   21.8857   10.1133 H       1  lig         0.0634
     20 H20         5.6815   23.3750    7.9954 H       1  lig         0.0564
     21 H21         8.1043   23.6359    9.3661 H       1  lig         0.0555
     22 H22         7.9201   24.8707    7.2853 H       1  lig         0.0551
     23 H23         5.9569   22.7510    4.7875 H       1  lig         0.0433
     24 H24         7.0472   21.4106    5.0198 H       1  lig         0.0424
     25 H25         5.9618   21.8835    6.3214 H       1  lig         0.0357
     26 H26         7.6267   22.9665    3.3858 H       1  lig         0.4072
     27 C1         10.5306   25.4687    5.4367 C.1     1  lig        -0.1335
     28 C2          9.4637   24.7954    5.2429 C.1     1  lig        -0.1688
     29 C3          6.1764   23.6857   12.5790 C.2     1  lig        -0.2674
     30 C4          6.1671   23.5432   11.1501 C.2     1  lig        -0.0292
     31 C5          6.8464   22.5807   13.3148 C.2     1  lig         0.5673
     32 C6          5.3774   24.6514   10.4125 C.3     1  lig        -0.0559
     33 C7          7.3175   21.3251   12.5953 C.3     1  lig        -0.1823
     34 C8          5.9850   25.1179    9.0601 C.3     1  lig        -0.0728
     35 C9          7.8120   21.6892   11.1548 C.3     1  lig        -0.0705
     36 C10         6.4344   25.3319    6.0270 C.3     1  lig        -0.0740
     37 C11         8.0990   21.9356    8.2652 C.3     1  lig        -0.0723
     38 C12         7.1356   25.1547    4.6614 C.3     1  lig        -0.0690
     39 C13         8.6883   22.4709    6.9326 C.3     1  lig        -0.0643
     40 C14         6.8146   22.5796   10.3524 C.3     1  lig        -0.0353
     41 C15         6.5854   23.9357    8.2436 C.3     1  lig        -0.0466
     42 C16         7.2763   22.9923    9.0498 C.3     1  lig        -0.0538
     43 C17         7.0593   24.2910    6.9390 C.3     1  lig        -0.0659
     44 C18         8.2128   24.0757    4.8610 C.3     1  lig         0.2372
     45 C19         7.7047   23.2491    6.0373 C.3     1  lig        -0.0680
     46 C20         6.5900   22.2685    5.5170 C.3     1  lig        -0.0802
     47 O1          6.9240   22.7069   14.4886 O.2     1  lig        -0.5348
     48 O2          8.4785   23.3734    3.6425 O.3     1  lig        -0.5805
@<TRIPOS>BOND
     1    31    47    2
     2    31    33    1
     3    29    31    1
     4    33    35    1
     5     5    33    1
     6     6    33    1
     7    29    30    2
     8     2    29    1
     9    30    32    1
    10    30    40    1
    11    32    34    1
    12     3    32    1
    13     4    32    1
    14    35    40    1
    15    40    42    1
    16    19    40    1
    17     9    35    1
    18    10    35    1
    19    41    42    1
    20    37    42    1
    21    21    42    1
    22    34    41    1
    23    41    43    1
    24    20    41    1
    25     7    34    1
    26     8    34    1
    27    37    39    1
    28    13    37    1
    29    14    37    1
    30    39    45    1
    31    17    39    1
    32    18    39    1
    33    43    45    1
    34    45    46    1
    35    44    45    1
    36    36    43    1
    37    22    43    1
    38    23    46    1
    39    24    46    1
    40    25    46    1
    41    44    48    1
    42    38    44    1
    43    28    44    1
    44    26    48    1
    45    36    38    1
    46    15    38    1
    47    16    38    1
    48    11    36    1
    49    12    36    1
    50    27    28    3
    51     1    27    1
@<TRIPOS>SUBSTRUCTURE
     1 lig         1 TEMP              0 ****  ****    0 ROOT


########## Name:		ligand
########## HA_RMSDs:		15.5933
########## HA_RMSDh:		15.4045
########## HA_RMSDm:		9.9295
########## Cluster Size:	1
##########    Grid Score:          -17.564976
##########      Grid_vdw:          -15.882671
##########       Grid_es:           -1.682304
##########    Int_energy:            3.253610

@<TRIPOS>MOLECULE
ligand
 48 51 1 0 0
SMALL
No Charge or Current Charge


@<TRIPOS>ATOM
      1 H1         22.9633   24.8714   31.7337 H       1  lig         0.1670
      2 H2         13.9991   23.4284   30.8270 H       1  lig         0.1473
      3 H3         15.7976   21.9091   30.6615 H       1  lig         0.0559
      4 H4         15.6719   21.0653   32.1874 H       1  lig         0.0575
      5 H5         13.7273   24.7357   34.5811 H       1  lig         0.0688
      6 H6         14.0627   26.3795   34.0408 H       1  lig         0.0740
      7 H7         18.0926   22.4081   30.9748 H       1  lig         0.0477
      8 H8         17.9226   20.7418   31.5142 H       1  lig         0.0465
      9 H9         16.0311   25.2064   35.0920 H       1  lig         0.0495
     10 H10        16.3615   25.8128   33.4685 H       1  lig         0.0527
     11 H11        20.4783   20.8464   31.5730 H       1  lig         0.0459
     12 H12        19.9294   19.8696   32.9514 H       1  lig         0.0459
     13 H13        17.9936   23.5172   35.7762 H       1  lig         0.0438
     14 H14        18.1834   25.0551   34.9836 H       1  lig         0.0425
     15 H15        21.9613   19.9717   33.9338 H       1  lig         0.0681
     16 H16        22.6400   20.7976   32.5799 H       1  lig         0.0571
     17 H17        20.3417   24.1169   35.8029 H       1  lig         0.0423
     18 H18        20.3057   24.5098   34.1070 H       1  lig         0.0489
     19 H19        15.8319   22.9874   34.3430 H       1  lig         0.0634
     20 H20        17.8572   21.4429   33.7771 H       1  lig         0.0564
     21 H21        17.9996   24.0896   32.8874 H       1  lig         0.0555
     22 H22        19.9853   22.7400   32.5355 H       1  lig         0.0551
     23 H23        20.4278   20.4273   35.5424 H       1  lig         0.0433
     24 H24        20.3657   21.7843   36.6353 H       1  lig         0.0424
     25 H25        18.9130   21.2985   35.7696 H       1  lig         0.0357
     26 H26        22.4882   21.1880   35.7456 H       1  lig         0.4072
     27 C1         22.7173   24.1163   32.4483 C.1     1  lig        -0.1335
     28 C2         22.3885   23.2107   33.2857 C.1     1  lig        -0.1688
     29 C3         14.4431   23.8002   31.7430 C.2     1  lig        -0.2674
     30 C4         15.5646   23.2019   32.4113 C.2     1  lig        -0.0292
     31 C5         13.8347   24.9569   32.4524 C.2     1  lig         0.5673
     32 C6         16.1169   21.9396   31.7062 C.3     1  lig        -0.0559
     33 C7         14.2742   25.3406   33.8580 C.3     1  lig        -0.1823
     34 C8         17.6616   21.7724   31.7481 C.3     1  lig        -0.0728
     35 C9         15.8046   25.0600   34.0340 C.3     1  lig        -0.0705
     36 C10        20.4276   20.7928   32.6630 C.3     1  lig        -0.0740
     37 C11        18.3836   23.9942   34.8739 C.3     1  lig        -0.0723
     38 C12        21.8343   20.8486   33.3003 C.3     1  lig        -0.0690
     39 C13        19.9239   23.8039   34.8458 C.3     1  lig        -0.0643
     40 C14        16.2425   23.6384   33.5663 C.3     1  lig        -0.0353
     41 C15        18.2658   22.2097   33.1151 C.3     1  lig        -0.0466
     42 C16        17.6588   23.3782   33.6474 C.3     1  lig        -0.0538
     43 C17        19.6724   21.9723   33.2494 C.3     1  lig        -0.0659
     44 C18        21.8716   22.1201   34.1642 C.3     1  lig         0.2372
     45 C19        20.4107   22.3795   34.5160 C.3     1  lig        -0.0680
     46 C20        19.9947   21.4067   35.6803 C.3     1  lig        -0.0802
     47 O1         12.9504   25.5070   31.8910 O.2     1  lig        -0.5348
     48 O2         22.7860   21.9810   35.2564 O.3     1  lig        -0.5805
@<TRIPOS>BOND
     1    31    47    2
     2    31    33    1
     3    29    31    1
     4    33    35    1
     5     5    33    1
     6     6    33    1
     7    29    30    2
     8     2    29    1
     9    30    32    1
    10    30    40    1
    11    32    34    1
    12     3    32    1
    13     4    32    1
    14    35    40    1
    15    40    42    1
    16    19    40    1
    17     9    35    1
    18    10    35    1
    19    41    42    1
    20    37    42    1
    21    21    42    1
    22    34    41    1
    23    41    43    1
    24    20    41    1
    25     7    34    1
    26     8    34    1
    27    37    39    1
    28    13    37    1
    29    14    37    1
    30    39    45    1
    31    17    39    1
    32    18    39    1
    33    43    45    1
    34    45    46    1
    35    44    45    1
    36    36    43    1
    37    22    43    1
    38    23    46    1
    39    24    46    1
    40    25    46    1
    41    44    48    1
    42    38    44    1
    43    28    44    1
    44    26    48    1
    45    36    38    1
    46    15    38    1
    47    16    38    1
    48    11    36    1
    49    12    36    1
    50    27    28    3
    51     1    27    1
@<TRIPOS>SUBSTRUCTURE
     1 lig         1 TEMP              0 ****  ****    0 ROOT


########## Name:		ligand
########## HA_RMSDs:		18.7976
########## HA_RMSDh:		18.4149
########## HA_RMSDm:		15.6270
########## Cluster Size:	3
##########    Grid Score:          -17.344498
##########      Grid_vdw:          -15.898657
##########       Grid_es:           -1.445841
##########    Int_energy:            3.010439

@<TRIPOS>MOLECULE
ligand
 48 51 1 0 0
SMALL
No Charge or Current Charge


@<TRIPOS>ATOM
      1 H1         37.5450   12.1115   27.4745 H       1  lig         0.1670
      2 H2         30.0628   11.3404   33.4287 H       1  lig         0.1473
      3 H3         31.2701   13.2353   32.7062 H       1  lig         0.0559
      4 H4         30.1686   13.9123   31.5295 H       1  lig         0.0575
      5 H5         28.1655    9.7288   30.3177 H       1  lig         0.0688
      6 H6         29.1044    8.2486   30.5023 H       1  lig         0.0740
      7 H7         33.0978   13.2466   31.1984 H       1  lig         0.0477
      8 H8         32.2895   14.7861   30.9284 H       1  lig         0.0465
      9 H9         29.8898    9.7548   28.6395 H       1  lig         0.0495
     10 H10        31.1553    9.3620   29.8044 H       1  lig         0.0527
     11 H11        34.3736   15.2585   29.5212 H       1  lig         0.0459
     12 H12        32.9728   15.9800   28.7009 H       1  lig         0.0459
     13 H13        30.7445   11.7883   27.1206 H       1  lig         0.0438
     14 H14        31.6727   10.3969   27.6021 H       1  lig         0.0425
     15 H15        34.1412   16.2673   26.7888 H       1  lig         0.0681
     16 H16        35.6003   15.7199   27.5284 H       1  lig         0.0571
     17 H17        32.7899   11.7353   25.8216 H       1  lig         0.0423
     18 H18        33.7444   11.4723   27.2539 H       1  lig         0.0489
     19 H19        29.6085   11.9208   29.5080 H       1  lig         0.0634
     20 H20        31.2064   13.9214   29.0060 H       1  lig         0.0564
     21 H21        32.4031   11.4496   29.5304 H       1  lig         0.0555
     22 H22        33.9009   13.2360   28.8569 H       1  lig         0.0551
     23 H23        32.1448   15.3576   26.2109 H       1  lig         0.0433
     24 H24        31.8321   13.9440   25.2396 H       1  lig         0.0424
     25 H25        30.9873   14.1517   26.7690 H       1  lig         0.0357
     26 H26        34.4879   13.5339   24.6788 H       1  lig         0.4072
     27 C1         36.6407   12.6230   27.2257 C.1     1  lig        -0.1335
     28 C2         35.5806   13.2666   26.9236 C.1     1  lig        -0.1688
     29 C3         30.0295   11.0113   32.3968 C.2     1  lig        -0.2674
     30 C4         30.4567   11.7962   31.2727 C.2     1  lig        -0.0292
     31 C5         29.4255    9.6973   32.0505 C.2     1  lig         0.5673
     32 C6         30.9881   13.1999   31.6510 C.3     1  lig        -0.0559
     33 C7         29.1335    9.3191   30.6057 C.3     1  lig        -0.1823
     34 C8         32.1911   13.7086   30.8084 C.3     1  lig        -0.0728
     35 C9         30.2279    9.9248   29.6637 C.3     1  lig        -0.0705
     36 C10        33.7456   15.2177   28.6281 C.3     1  lig        -0.0740
     37 C11        31.6490   11.4808   27.6507 C.3     1  lig        -0.0723
     38 C12        34.5736   15.4342   27.3415 C.3     1  lig        -0.0690
     39 C13        32.8799   12.0163   26.8711 C.3     1  lig        -0.0643
     40 C14        30.5039   11.4395   29.9108 C.3     1  lig        -0.0353
     41 C15        32.0665   13.3186   29.3060 C.3     1  lig        -0.0466
     42 C16        31.5596   12.0067   29.1083 C.3     1  lig        -0.0538
     43 C17        33.0916   13.8574   28.4623 C.3     1  lig        -0.0659
     44 C18        34.4430   14.1433   26.5163 C.3     1  lig         0.2372
     45 C19        33.1226   13.5344   26.9758 C.3     1  lig        -0.0680
     46 C20        31.9443   14.2981   26.2663 C.3     1  lig        -0.0802
     47 O1         29.1250    9.0048   32.9615 O.2     1  lig        -0.5348
     48 O2         34.5837   14.4037   25.1160 O.3     1  lig        -0.5805
@<TRIPOS>BOND
     1    31    47    2
     2    31    33    1
     3    29    31    1
     4    33    35    1
     5     5    33    1
     6     6    33    1
     7    29    30    2
     8     2    29    1
     9    30    32    1
    10    30    40    1
    11    32    34    1
    12     3    32    1
    13     4    32    1
    14    35    40    1
    15    40    42    1
    16    19    40    1
    17     9    35    1
    18    10    35    1
    19    41    42    1
    20    37    42    1
    21    21    42    1
    22    34    41    1
    23    41    43    1
    24    20    41    1
    25     7    34    1
    26     8    34    1
    27    37    39    1
    28    13    37    1
    29    14    37    1
    30    39    45    1
    31    17    39    1
    32    18    39    1
    33    43    45    1
    34    45    46    1
    35    44    45    1
    36    36    43    1
    37    22    43    1
    38    23    46    1
    39    24    46    1
    40    25    46    1
    41    44    48    1
    42    38    44    1
    43    28    44    1
    44    26    48    1
    45    36    38    1
    46    15    38    1
    47    16    38    1
    48    11    36    1
    49    12    36    1
    50    27    28    3
    51     1    27    1
@<TRIPOS>SUBSTRUCTURE
     1 lig         1 TEMP              0 ****  ****    0 ROOT


########## Name:		ligand
########## HA_RMSDs:		15.0148
########## HA_RMSDh:		14.9024
########## HA_RMSDm:		9.8805
########## Cluster Size:	4
##########    Grid Score:          -17.325441
##########      Grid_vdw:          -17.005911
##########       Grid_es:           -0.319530
##########    Int_energy:            3.130666

@<TRIPOS>MOLECULE
ligand
 48 51 1 0 0
SMALL
No Charge or Current Charge


@<TRIPOS>ATOM
      1 H1         14.6481   17.9068   36.3410 H       1  lig         0.1670
      2 H2         23.2526   21.1584   33.9400 H       1  lig         0.1473
      3 H3         21.9152   19.5730   32.8139 H       1  lig         0.0559
      4 H4         21.2478   20.5458   31.5237 H       1  lig         0.0575
      5 H5         21.3876   24.6794   33.9479 H       1  lig         0.0688
      6 H6         21.3028   24.6390   35.7080 H       1  lig         0.0740
      7 H7         19.7881   18.7870   33.5008 H       1  lig         0.0477
      8 H8         19.7354   18.7326   31.7428 H       1  lig         0.0465
      9 H9         19.1483   24.0336   34.5472 H       1  lig         0.0495
     10 H10        19.7095   22.7969   35.6735 H       1  lig         0.0527
     11 H11        17.5483   17.4772   32.1755 H       1  lig         0.0459
     12 H12        17.3238   18.5109   30.7483 H       1  lig         0.0459
     13 H13        17.2255   22.9693   33.0166 H       1  lig         0.0438
     14 H14        17.4050   22.7718   34.7366 H       1  lig         0.0425
     15 H15        15.0806   18.2510   30.8155 H       1  lig         0.0681
     16 H16        15.1913   17.1175   32.1111 H       1  lig         0.0571
     17 H17        15.2022   21.9655   33.8957 H       1  lig         0.0423
     18 H18        16.1225   20.7915   34.7936 H       1  lig         0.0489
     19 H19        19.8446   22.7995   32.6719 H       1  lig         0.0634
     20 H20        18.5333   20.7739   31.6795 H       1  lig         0.0564
     21 H21        18.7420   20.9014   34.4646 H       1  lig         0.0555
     22 H22        17.3378   19.1299   33.5824 H       1  lig         0.0551
     23 H23        15.4791   20.4654   30.5249 H       1  lig         0.0433
     24 H24        14.8665   21.8127   31.4465 H       1  lig         0.0424
     25 H25        16.5816   21.7308   31.0623 H       1  lig         0.0357
     26 H26        13.0557   18.7048   32.5061 H       1  lig         0.4072
     27 C1         14.7707   18.2210   35.3273 C.1     1  lig        -0.1335
     28 C2         14.8863   18.6193   34.1201 C.1     1  lig        -0.1688
     29 C3         22.3653   21.7685   34.0621 C.2     1  lig        -0.2674
     30 C4         21.0965   21.5016   33.4447 C.2     1  lig        -0.0292
     31 C5         22.4298   23.0337   34.8408 C.2     1  lig         0.5673
     32 C6         21.0829   20.2333   32.5577 C.3     1  lig        -0.0559
     33 C7         21.2823   24.0331   34.8192 C.3     1  lig        -0.1823
     34 C8         19.7706   19.4015   32.6008 C.3     1  lig        -0.0728
     35 C9         19.9163   23.2751   34.7116 C.3     1  lig        -0.0705
     36 C10        17.0076   18.3379   31.7749 C.3     1  lig        -0.0740
     37 C11        17.3558   22.2215   33.8025 C.3     1  lig        -0.0723
     38 C12        15.4785   18.1194   31.8209 C.3     1  lig        -0.0690
     39 C13        16.0862   21.3294   33.8454 C.3     1  lig        -0.0643
     40 C14        19.8802   22.1982   33.5845 C.3     1  lig        -0.0353
     41 C15        18.5022   20.3027   32.6644 C.3     1  lig        -0.0466
     42 C16        18.6601   21.4326   33.5102 C.3     1  lig        -0.0538
     43 C17        17.2604   19.5915   32.5935 C.3     1  lig        -0.0659
     44 C18        14.9103   19.2067   32.7479 C.3     1  lig         0.2372
     45 C19        15.9351   20.3338   32.6790 C.3     1  lig        -0.0680
     46 C20        15.7137   21.1319   31.3414 C.3     1  lig        -0.0802
     47 O1         23.4443   23.2438   35.4120 O.2     1  lig        -0.5348
     48 O2         13.5615   19.5353   32.3997 O.3     1  lig        -0.5805
@<TRIPOS>BOND
     1    31    47    2
     2    31    33    1
     3    29    31    1
     4    33    35    1
     5     5    33    1
     6     6    33    1
     7    29    30    2
     8     2    29    1
     9    30    32    1
    10    30    40    1
    11    32    34    1
    12     3    32    1
    13     4    32    1
    14    35    40    1
    15    40    42    1
    16    19    40    1
    17     9    35    1
    18    10    35    1
    19    41    42    1
    20    37    42    1
    21    21    42    1
    22    34    41    1
    23    41    43    1
    24    20    41    1
    25     7    34    1
    26     8    34    1
    27    37    39    1
    28    13    37    1
    29    14    37    1
    30    39    45    1
    31    17    39    1
    32    18    39    1
    33    43    45    1
    34    45    46    1
    35    44    45    1
    36    36    43    1
    37    22    43    1
    38    23    46    1
    39    24    46    1
    40    25    46    1
    41    44    48    1
    42    38    44    1
    43    28    44    1
    44    26    48    1
    45    36    38    1
    46    15    38    1
    47    16    38    1
    48    11    36    1
    49    12    36    1
    50    27    28    3
    51     1    27    1
@<TRIPOS>SUBSTRUCTURE
     1 lig         1 TEMP              0 ****  ****    0 ROOT


########## Name:		ligand
########## HA_RMSDs:		15.1148
########## HA_RMSDh:		14.9409
########## HA_RMSDm:		8.8871
########## Cluster Size:	5
##########    Grid Score:          -16.923265
##########      Grid_vdw:          -16.863989
##########       Grid_es:           -0.059276
##########    Int_energy:            3.008608

@<TRIPOS>MOLECULE
ligand
 48 51 1 0 0
SMALL
No Charge or Current Charge


@<TRIPOS>ATOM
      1 H1         19.1708   19.9986   32.5562 H       1  lig         0.1670
      2 H2         27.8921   17.0529   35.2855 H       1  lig         0.1473
      3 H3         25.7448   16.3325   35.9489 H       1  lig         0.0559
      4 H4         25.5981   14.8351   35.0586 H       1  lig         0.0575
      5 H5         28.4401   16.1750   31.4378 H       1  lig         0.0688
      6 H6         28.5883   17.8903   31.0599 H       1  lig         0.0740
      7 H7         23.6744   17.1641   35.1511 H       1  lig         0.0477
      8 H8         23.3611   15.4724   35.5203 H       1  lig         0.0465
      9 H9         26.3493   16.8860   30.4821 H       1  lig         0.0495
     10 H10        26.2352   18.2878   31.5474 H       1  lig         0.0527
     11 H11        20.9356   16.1718   35.1031 H       1  lig         0.0459
     12 H12        21.1611   14.5322   34.4575 H       1  lig         0.0459
     13 H13        23.9794   15.6385   30.4743 H       1  lig         0.0438
     14 H14        24.2431   17.3566   30.3841 H       1  lig         0.0425
     15 H15        19.2186   14.6328   33.3083 H       1  lig         0.0681
     16 H16        18.8259   16.1677   33.9904 H       1  lig         0.0571
     17 H17        21.8921   16.7110   29.8684 H       1  lig         0.0423
     18 H18        22.0716   17.8806   31.1457 H       1  lig         0.0489
     19 H19        25.9364   15.3788   32.2379 H       1  lig         0.0634
     20 H20        23.5725   14.8961   33.2314 H       1  lig         0.0564
     21 H21        24.1935   17.5677   32.6891 H       1  lig         0.0555
     22 H22        21.9177   17.1284   33.4074 H       1  lig         0.0551
     23 H23        20.7845   13.8139   31.8855 H       1  lig         0.0433
     24 H24        21.2004   14.3698   30.2862 H       1  lig         0.0424
     25 H25        22.4773   14.0389   31.4506 H       1  lig         0.0357
     26 H26        19.2262   16.2845   30.2552 H       1  lig         0.4072
     27 C1         19.4394   18.9761   32.4017 C.1     1  lig        -0.1335
     28 C2         19.7265   17.7439   32.2328 C.1     1  lig        -0.1688
     29 C3         27.5507   17.0107   34.2579 C.2     1  lig        -0.2674
     30 C4         26.2931   16.4616   33.8346 C.2     1  lig        -0.0292
     31 C5         28.4430   17.4567   33.1551 C.2     1  lig         0.5673
     32 C6         25.4250   15.9119   34.9922 C.3     1  lig        -0.0559
     33 C7         28.0991   17.1766   31.6993 C.3     1  lig        -0.1823
     34 C8         23.8946   16.1410   34.8470 C.3     1  lig        -0.0728
     35 C9         26.5479   17.2408   31.4955 C.3     1  lig        -0.0705
     36 C10        20.9466   15.5658   34.1941 C.3     1  lig        -0.0740
     37 C11        23.7569   16.5851   30.9725 C.3     1  lig        -0.0723
     38 C12        19.5986   15.6447   33.4427 C.3     1  lig        -0.0690
     39 C13        22.2256   16.8291   30.8996 C.3     1  lig        -0.0643
     40 C14        25.7401   16.4112   32.5400 C.3     1  lig        -0.0353
     41 C15        23.4082   15.9660   33.3780 C.3     1  lig        -0.0466
     42 C16        24.3062   16.5113   32.4223 C.3     1  lig        -0.0538
     43 C17        21.9888   16.0557   33.2044 C.3     1  lig        -0.0659
     44 C18        19.8999   16.2701   32.0707 C.3     1  lig         0.2372
     45 C19        21.3675   15.9402   31.8204 C.3     1  lig        -0.0680
     46 C20        21.4709   14.4452   31.3413 C.3     1  lig        -0.0802
     47 O1         29.4572   17.9719   33.4803 O.2     1  lig        -0.5348
     48 O2         18.9605   15.8350   31.0824 O.3     1  lig        -0.5805
@<TRIPOS>BOND
     1    31    47    2
     2    31    33    1
     3    29    31    1
     4    33    35    1
     5     5    33    1
     6     6    33    1
     7    29    30    2
     8     2    29    1
     9    30    32    1
    10    30    40    1
    11    32    34    1
    12     3    32    1
    13     4    32    1
    14    35    40    1
    15    40    42    1
    16    19    40    1
    17     9    35    1
    18    10    35    1
    19    41    42    1
    20    37    42    1
    21    21    42    1
    22    34    41    1
    23    41    43    1
    24    20    41    1
    25     7    34    1
    26     8    34    1
    27    37    39    1
    28    13    37    1
    29    14    37    1
    30    39    45    1
    31    17    39    1
    32    18    39    1
    33    43    45    1
    34    45    46    1
    35    44    45    1
    36    36    43    1
    37    22    43    1
    38    23    46    1
    39    24    46    1
    40    25    46    1
    41    44    48    1
    42    38    44    1
    43    28    44    1
    44    26    48    1
    45    36    38    1
    46    15    38    1
    47    16    38    1
    48    11    36    1
    49    12    36    1
    50    27    28    3
    51     1    27    1
@<TRIPOS>SUBSTRUCTURE
     1 lig         1 TEMP              0 ****  ****    0 ROOT


########## Name:		ligand
########## HA_RMSDs:		17.5322
########## HA_RMSDh:		17.4051
########## HA_RMSDm:		13.7890
########## Cluster Size:	2
##########    Grid Score:          -16.903492
##########      Grid_vdw:          -16.591961
##########       Grid_es:           -0.311531
##########    Int_energy:            3.079632

@<TRIPOS>MOLECULE
ligand
 48 51 1 0 0
SMALL
No Charge or Current Charge


@<TRIPOS>ATOM
      1 H1         28.2541   10.0618   27.8630 H       1  lig         0.1670
      2 H2         29.5099   18.6662   31.8766 H       1  lig         0.1473
      3 H3         29.7010   16.5301   32.8619 H       1  lig         0.0559
      4 H4         31.4366   16.3225   32.8903 H       1  lig         0.0575
      5 H5         32.2879   19.0594   29.0475 H       1  lig         0.0688
      6 H6         31.0296   19.2276   27.8248 H       1  lig         0.0740
      7 H7         29.3363   14.4494   31.7888 H       1  lig         0.0477
      8 H8         30.5733   14.1163   32.9950 H       1  lig         0.0465
      9 H9         32.1078   16.9501   27.9033 H       1  lig         0.0495
     10 H10        30.3529   16.9016   28.0793 H       1  lig         0.0527
     11 H11        30.1099   11.6916   32.3223 H       1  lig         0.0459
     12 H12        31.8519   11.8618   32.6261 H       1  lig         0.0459
     13 H13        33.0908   14.5575   28.5973 H       1  lig         0.0438
     14 H14        31.6837   14.8514   27.6159 H       1  lig         0.0425
     15 H15        32.2981    9.8819   31.6336 H       1  lig         0.0681
     16 H16        30.6202    9.5439   31.4191 H       1  lig         0.0571
     17 H17        32.4200   12.4714   27.5618 H       1  lig         0.0423
     18 H18        30.7625   12.7192   28.0341 H       1  lig         0.0489
     19 H19        32.4595   16.5706   30.1962 H       1  lig         0.0634
     20 H20        32.2679   14.2347   31.3427 H       1  lig         0.0564
     21 H21        30.2975   14.8882   29.4698 H       1  lig         0.0555
     22 H22        30.2159   12.6312   30.3574 H       1  lig         0.0551
     23 H23        33.7946   11.3797   30.8187 H       1  lig         0.0433
     24 H24        34.1716   11.7492   29.1571 H       1  lig         0.0424
     25 H25        33.8900   13.0601   30.2964 H       1  lig         0.0357
     26 H26        31.8483    8.8059   28.9144 H       1  lig         0.4072
     27 C1         29.1447   10.2320   28.4280 C.1     1  lig        -0.1335
     28 C2         30.2280   10.4121   29.0787 C.1     1  lig        -0.1688
     29 C3         30.0708   18.2876   31.0302 C.2     1  lig        -0.2674
     30 C4         30.7153   17.0052   30.9823 C.2     1  lig        -0.0292
     31 C5         30.2988   19.1486   29.8394 C.2     1  lig         0.5673
     32 C6         30.5479   16.1683   32.2736 C.3     1  lig        -0.0559
     33 C7         31.2860   18.7476   28.7528 C.3     1  lig        -0.1823
     34 C8         30.3746   14.6384   32.0608 C.3     1  lig        -0.0728
     35 C9         31.2830   17.1916   28.5768 C.3     1  lig        -0.0705
     36 C10        31.1015   11.6584   31.8650 C.3     1  lig        -0.0740
     37 C11        32.0162   14.3715   28.5307 C.3     1  lig        -0.0723
     38 C12        31.3793   10.2862   31.2108 C.3     1  lig        -0.0690
     39 C13        31.7923   12.8437   28.3717 C.3     1  lig        -0.0643
     40 C14        31.4152   16.4055   29.9171 C.3     1  lig        -0.0353
     41 C15        31.2741   14.0967   30.9109 C.3     1  lig        -0.0466
     42 C16        31.3408   14.9705   29.7933 C.3     1  lig        -0.0538
     43 C17        31.2382   12.6740   30.7446 C.3     1  lig        -0.0659
     44 C18        31.5743   10.5506   29.7086 C.3     1  lig         0.2372
     45 C19        32.0380   12.0016   29.6386 C.3     1  lig        -0.0680
     46 C20        33.5654   12.0585   30.0110 C.3     1  lig        -0.0802
     47 O1         29.7258   20.1836   29.8264 O.2     1  lig        -0.5348
     48 O2         32.4281    9.5682   29.1134 O.3     1  lig        -0.5805
@<TRIPOS>BOND
     1    31    47    2
     2    31    33    1
     3    29    31    1
     4    33    35    1
     5     5    33    1
     6     6    33    1
     7    29    30    2
     8     2    29    1
     9    30    32    1
    10    30    40    1
    11    32    34    1
    12     3    32    1
    13     4    32    1
    14    35    40    1
    15    40    42    1
    16    19    40    1
    17     9    35    1
    18    10    35    1
    19    41    42    1
    20    37    42    1
    21    21    42    1
    22    34    41    1
    23    41    43    1
    24    20    41    1
    25     7    34    1
    26     8    34    1
    27    37    39    1
    28    13    37    1
    29    14    37    1
    30    39    45    1
    31    17    39    1
    32    18    39    1
    33    43    45    1
    34    45    46    1
    35    44    45    1
    36    36    43    1
    37    22    43    1
    38    23    46    1
    39    24    46    1
    40    25    46    1
    41    44    48    1
    42    38    44    1
    43    28    44    1
    44    26    48    1
    45    36    38    1
    46    15    38    1
    47    16    38    1
    48    11    36    1
    49    12    36    1
    50    27    28    3
    51     1    27    1
@<TRIPOS>SUBSTRUCTURE
     1 lig         1 TEMP              0 ****  ****    0 ROOT


########## Name:		ligand
########## HA_RMSDs:		17.2060
########## HA_RMSDh:		17.1980
########## HA_RMSDm:		13.2791
########## Cluster Size:	1
##########    Grid Score:          -16.889841
##########      Grid_vdw:          -16.920141
##########       Grid_es:            0.030300
##########    Int_energy:            3.295727

@<TRIPOS>MOLECULE
ligand
 48 51 1 0 0
SMALL
No Charge or Current Charge


@<TRIPOS>ATOM
      1 H1          8.9597   21.9998   11.1374 H       1  lig         0.1670
      2 H2         13.2660   26.2577    4.3399 H       1  lig         0.1473
      3 H3         12.5786   24.0051    4.4931 H       1  lig         0.0559
      4 H4         11.1643   24.0103    3.4653 H       1  lig         0.0575
      5 H5         10.0496   28.6075    4.2436 H       1  lig         0.0688
      6 H6         10.5451   29.3604    5.7582 H       1  lig         0.0740
      7 H7         11.4217   23.0087    6.3050 H       1  lig         0.0477
      8 H8         10.8595   22.1352    4.8847 H       1  lig         0.0465
      9 H9          8.7063   27.6523    5.9967 H       1  lig         0.0495
     10 H10        10.1090   27.3193    7.0138 H       1  lig         0.0527
     11 H11         9.7995   20.6129    6.6469 H       1  lig         0.0459
     12 H12         8.6773   20.7428    5.2759 H       1  lig         0.0459
     13 H13         7.1630   25.4641    5.9467 H       1  lig         0.0438
     14 H14         7.9384   26.1500    7.3460 H       1  lig         0.0425
     15 H15         6.9808   19.8613    6.4796 H       1  lig         0.0681
     16 H16         8.0166   19.5523    7.8239 H       1  lig         0.0571
     17 H17         6.2554   24.4076    7.9302 H       1  lig         0.0423
     18 H18         7.8521   24.1327    8.5678 H       1  lig         0.0489
     19 H19         9.2881   25.9772    4.4539 H       1  lig         0.0634
     20 H20         8.8744   23.4286    4.8303 H       1  lig         0.0564
     21 H21         9.8483   24.8857    7.0088 H       1  lig         0.0555
     22 H22         9.2707   22.5703    7.4493 H       1  lig         0.0551
     23 H23         6.1566   21.6906    5.4208 H       1  lig         0.0433
     24 H24         5.2937   23.0453    6.0989 H       1  lig         0.0424
     25 H25         6.6220   23.3325    4.9814 H       1  lig         0.0357
     26 H26         5.6252   20.3982    8.7371 H       1  lig         0.4072
     27 C1          8.3618   21.8213   10.2703 C.1     1  lig        -0.1335
     28 C2          7.6693   21.6331    9.2146 C.1     1  lig        -0.1688
     29 C3         12.2829   26.5455    4.6937 C.2     1  lig        -0.2674
     30 C4         11.1777   25.6446    4.8638 C.2     1  lig        -0.0292
     31 C5         11.9709   27.9762    4.9520 C.2     1  lig         0.5673
     32 C6         11.4993   24.1769    4.4920 C.3     1  lig        -0.0559
     33 C7         10.5430   28.4402    5.2009 C.3     1  lig        -0.1823
     34 C8         10.8338   23.0982    5.3917 C.3     1  lig        -0.0728
     35 C9          9.7514   27.3366    5.9801 C.3     1  lig        -0.0705
     36 C10         8.8188   20.9750    6.3294 C.3     1  lig        -0.0740
     37 C11         7.8721   25.2461    6.7490 C.3     1  lig        -0.0723
     38 C12         7.6823   20.3398    7.1617 C.3     1  lig        -0.0690
     39 C13         7.2705   24.1305    7.6450 C.3     1  lig        -0.0643
     40 C14         9.8884   25.9101    5.3654 C.3     1  lig        -0.0353
     41 C15         9.3802   23.4823    5.7970 C.3     1  lig        -0.0466
     42 C16         9.2305   24.8608    6.1045 C.3     1  lig        -0.0538
     43 C17         8.6794   22.4731    6.5340 C.3     1  lig        -0.0659
     44 C18         6.9820   21.4948    7.8967 C.3     1  lig         0.2372
     45 C19         7.2619   22.7177    7.0297 C.3     1  lig        -0.0680
     46 C20         6.2829   22.6943    5.7984 C.3     1  lig        -0.0802
     47 O1         12.8804   28.7297    4.8814 O.2     1  lig        -0.5348
     48 O2          5.6091   21.1881    8.1603 O.3     1  lig        -0.5805
@<TRIPOS>BOND
     1    31    47    2
     2    31    33    1
     3    29    31    1
     4    33    35    1
     5     5    33    1
     6     6    33    1
     7    29    30    2
     8     2    29    1
     9    30    32    1
    10    30    40    1
    11    32    34    1
    12     3    32    1
    13     4    32    1
    14    35    40    1
    15    40    42    1
    16    19    40    1
    17     9    35    1
    18    10    35    1
    19    41    42    1
    20    37    42    1
    21    21    42    1
    22    34    41    1
    23    41    43    1
    24    20    41    1
    25     7    34    1
    26     8    34    1
    27    37    39    1
    28    13    37    1
    29    14    37    1
    30    39    45    1
    31    17    39    1
    32    18    39    1
    33    43    45    1
    34    45    46    1
    35    44    45    1
    36    36    43    1
    37    22    43    1
    38    23    46    1
    39    24    46    1
    40    25    46    1
    41    44    48    1
    42    38    44    1
    43    28    44    1
    44    26    48    1
    45    36    38    1
    46    15    38    1
    47    16    38    1
    48    11    36    1
    49    12    36    1
    50    27    28    3
    51     1    27    1
@<TRIPOS>SUBSTRUCTURE
     1 lig         1 TEMP              0 ****  ****    0 ROOT


########## Name:		ligand
########## HA_RMSDs:		18.3798
########## HA_RMSDh:		18.0438
########## HA_RMSDm:		13.4931
########## Cluster Size:	1
##########    Grid Score:          -16.642550
##########      Grid_vdw:          -15.608887
##########       Grid_es:           -1.033662
##########    Int_energy:            3.007192

@<TRIPOS>MOLECULE
ligand
 48 51 1 0 0
SMALL
No Charge or Current Charge


@<TRIPOS>ATOM
      1 H1         28.6657   17.6540   29.9695 H       1  lig         0.1670
      2 H2         28.8269    8.1146   28.8328 H       1  lig         0.1473
      3 H3         29.8913    9.8290   27.6089 H       1  lig         0.0559
      4 H4         31.5278    9.7123   28.2125 H       1  lig         0.0575
      5 H5         30.3038    8.0325   32.5324 H       1  lig         0.0688
      6 H6         28.7151    8.4310   33.1835 H       1  lig         0.0740
      7 H7         29.7569   12.1551   28.0398 H       1  lig         0.0477
      8 H8         31.3645   11.9206   27.3639 H       1  lig         0.0465
      9 H9         30.3207   10.3725   33.0932 H       1  lig         0.0495
     10 H10        28.8021   10.6786   32.2488 H       1  lig         0.0527
     11 H11        31.3641   14.4790   27.3295 H       1  lig         0.0459
     12 H12        32.9975   13.9283   27.7591 H       1  lig         0.0459
     13 H13        32.0740   12.2704   32.3885 H       1  lig         0.0438
     14 H14        30.3971   12.5099   32.7884 H       1  lig         0.0425
     15 H15        33.5977   15.9942   28.4489 H       1  lig         0.0681
     16 H16        32.0963   16.6677   27.9315 H       1  lig         0.0571
     17 H17        31.6762   14.6450   32.6664 H       1  lig         0.0423
     18 H18        30.2653   14.5723   31.6487 H       1  lig         0.0489
     19 H19        31.4980   10.0388   31.0863 H       1  lig         0.0634
     20 H20        32.3219   11.9652   29.5313 H       1  lig         0.0564
     21 H21        29.7447   12.2091   30.5876 H       1  lig         0.0555
     22 H22        30.5617   14.1126   29.3237 H       1  lig         0.0551
     23 H23        34.2873   14.5394   30.0473 H       1  lig         0.0433
     24 H24        33.9816   14.5809   31.7633 H       1  lig         0.0424
     25 H25        33.7563   13.0780   30.8766 H       1  lig         0.0357
     26 H26        32.6518   16.9667   31.6410 H       1  lig         0.4072
     27 C1         29.6026   17.1430   30.0206 C.1     1  lig        -0.1335
     28 C2         30.7373   16.5597   30.0590 C.1     1  lig        -0.1688
     29 C3         29.1553    8.6066   29.7408 C.2     1  lig        -0.2674
     30 C4         30.0629    9.7185   29.7874 C.2     1  lig        -0.0292
     31 C5         28.7402    8.0802   31.0681 C.2     1  lig         0.5673
     32 C6         30.5597   10.1839   28.3973 C.3     1  lig        -0.0559
     33 C7         29.3813    8.5844   32.3529 C.3     1  lig        -0.1823
     34 C8         30.7373   11.7190   28.2305 C.3     1  lig        -0.0728
     35 C9         29.7323   10.1041   32.2134 C.3     1  lig        -0.0705
     36 C10        32.1199   14.4618   28.1182 C.3     1  lig        -0.0740
     37 C11        31.1278   12.6535   31.9990 C.3     1  lig        -0.0723
     38 C12        32.5185   15.8899   28.5538 C.3     1  lig        -0.0690
     39 C13        31.2768   14.1807   31.7645 C.3     1  lig        -0.0643
     40 C14        30.5034   10.4553   30.9043 C.3     1  lig        -0.0353
     41 C15        31.3154   12.3892   29.5118 C.3     1  lig        -0.0466
     42 C16        30.7749   11.8588   30.7133 C.3     1  lig        -0.0538
     43 C17        31.6045   13.7859   29.3764 C.3     1  lig        -0.0659
     44 C18        32.1284   16.0188   30.0356 C.3     1  lig         0.2372
     45 C19        32.1412   14.5850   30.5546 C.3     1  lig        -0.0680
     46 C20        33.6330   14.1602   30.8179 C.3     1  lig        -0.0802
     47 O1         27.9429    7.2061   31.0567 O.2     1  lig        -0.5348
     48 O2         32.9652   16.9610   30.7144 O.3     1  lig        -0.5805
@<TRIPOS>BOND
     1    31    47    2
     2    31    33    1
     3    29    31    1
     4    33    35    1
     5     5    33    1
     6     6    33    1
     7    29    30    2
     8     2    29    1
     9    30    32    1
    10    30    40    1
    11    32    34    1
    12     3    32    1
    13     4    32    1
    14    35    40    1
    15    40    42    1
    16    19    40    1
    17     9    35    1
    18    10    35    1
    19    41    42    1
    20    37    42    1
    21    21    42    1
    22    34    41    1
    23    41    43    1
    24    20    41    1
    25     7    34    1
    26     8    34    1
    27    37    39    1
    28    13    37    1
    29    14    37    1
    30    39    45    1
    31    17    39    1
    32    18    39    1
    33    43    45    1
    34    45    46    1
    35    44    45    1
    36    36    43    1
    37    22    43    1
    38    23    46    1
    39    24    46    1
    40    25    46    1
    41    44    48    1
    42    38    44    1
    43    28    44    1
    44    26    48    1
    45    36    38    1
    46    15    38    1
    47    16    38    1
    48    11    36    1
    49    12    36    1
    50    27    28    3
    51     1    27    1
@<TRIPOS>SUBSTRUCTURE
     1 lig         1 TEMP              0 ****  ****    0 ROOT


########## Name:		ligand
########## HA_RMSDs:		15.7179
########## HA_RMSDh:		15.5887
########## HA_RMSDm:		10.3974
########## Cluster Size:	4
##########    Grid Score:          -16.450001
##########      Grid_vdw:          -17.581520
##########       Grid_es:            1.131519
##########    Int_energy:            3.185632

@<TRIPOS>MOLECULE
ligand
 48 51 1 0 0
SMALL
No Charge or Current Charge


@<TRIPOS>ATOM
      1 H1         22.3965   12.0831   33.9203 H       1  lig         0.1670
      2 H2         21.4420   21.4612   33.9713 H       1  lig         0.1473
      3 H3         22.6395   20.1077   35.4893 H       1  lig         0.0559
      4 H4         24.2795   20.3365   34.9286 H       1  lig         0.0575
      5 H5         23.0905   21.1540   30.3569 H       1  lig         0.0688
      6 H6         21.5978   20.4601   29.7269 H       1  lig         0.0740
      7 H7         22.8093   17.7450   35.4341 H       1  lig         0.0477
      8 H8         24.3392   18.2846   36.1157 H       1  lig         0.0465
      9 H9         23.4187   18.7767   30.1809 H       1  lig         0.0495
     10 H10        21.9058   18.4149   31.0135 H       1  lig         0.0527
     11 H11        24.6454   15.7837   36.5613 H       1  lig         0.0459
     12 H12        26.2208   16.4643   36.1023 H       1  lig         0.0459
     13 H13        25.3486   17.2505   31.2388 H       1  lig         0.0438
     14 H14        23.7361   16.7401   30.8280 H       1  lig         0.0425
     15 H15        27.1010   14.4098   35.7739 H       1  lig         0.0681
     16 H16        25.6667   13.6393   36.3437 H       1  lig         0.0571
     17 H17        25.2550   14.8305   31.3337 H       1  lig         0.0423
     18 H18        23.7942   14.8804   32.2799 H       1  lig         0.0489
     19 H19        24.4401   19.5658   32.1453 H       1  lig         0.0634
     20 H20        25.4074   18.0256   34.0162 H       1  lig         0.0564
     21 H21        22.9375   17.2942   32.9292 H       1  lig         0.0555
     22 H22        23.9105   15.7301   34.5090 H       1  lig         0.0551
     23 H23        27.6932   15.6740   33.9856 H       1  lig         0.0433
     24 H24        27.4853   15.3274   32.2897 H       1  lig         0.0424
     25 H25        27.0342   16.9089   32.9151 H       1  lig         0.0357
     26 H26        26.5104   12.9210   32.7226 H       1  lig         0.4072
     27 C1         23.3128   12.6155   34.0564 C.1     1  lig        -0.1335
     28 C2         24.4182   13.2410   34.1833 C.1     1  lig        -0.1688
     29 C3         21.8746   20.8798   33.1655 C.2     1  lig        -0.2674
     30 C4         22.9107   19.8988   33.3281 C.2     1  lig        -0.0292
     31 C5         21.4693   21.1361   31.7580 C.2     1  lig         0.5673
     32 C6         23.3863   19.7225   34.7905 C.3     1  lig        -0.0559
     33 C7         22.2331   20.5238   30.5927 C.3     1  lig        -0.1823
     34 C8         23.7387   18.2674   35.2079 C.3     1  lig        -0.0728
     35 C9         22.7569   19.1016   30.9863 C.3     1  lig        -0.0705
     36 C10        25.4340   15.7741   35.8052 C.3     1  lig        -0.0740
     37 C11        24.4363   16.8153   31.6537 C.3     1  lig        -0.0723
     38 C12        26.0242   14.3582   35.6184 C.3     1  lig        -0.0690
     39 C13        24.7558   15.3748   32.1357 C.3     1  lig        -0.0643
     40 C14        23.4948   19.0595   32.3594 C.3     1  lig        -0.0353
     41 C15        24.4598   17.4852   34.0708 C.3     1  lig        -0.0466
     42 C16        23.9232   17.7489   32.7825 C.3     1  lig        -0.0538
     43 C17        24.9076   16.1748   34.4385 C.3     1  lig        -0.0659
     44 C18        25.7308   13.9517   34.1647 C.3     1  lig         0.2372
     45 C19        25.5979   15.2770   33.4225 C.3     1  lig        -0.0680
     46 C20        27.0393   15.8422   33.1431 C.3     1  lig        -0.0802
     47 O1         20.5729   21.8925   31.6025 O.2     1  lig        -0.5348
     48 O2         26.7095   13.0297   33.6741 O.3     1  lig        -0.5805
@<TRIPOS>BOND
     1    31    47    2
     2    31    33    1
     3    29    31    1
     4    33    35    1
     5     5    33    1
     6     6    33    1
     7    29    30    2
     8     2    29    1
     9    30    32    1
    10    30    40    1
    11    32    34    1
    12     3    32    1
    13     4    32    1
    14    35    40    1
    15    40    42    1
    16    19    40    1
    17     9    35    1
    18    10    35    1
    19    41    42    1
    20    37    42    1
    21    21    42    1
    22    34    41    1
    23    41    43    1
    24    20    41    1
    25     7    34    1
    26     8    34    1
    27    37    39    1
    28    13    37    1
    29    14    37    1
    30    39    45    1
    31    17    39    1
    32    18    39    1
    33    43    45    1
    34    45    46    1
    35    44    45    1
    36    36    43    1
    37    22    43    1
    38    23    46    1
    39    24    46    1
    40    25    46    1
    41    44    48    1
    42    38    44    1
    43    28    44    1
    44    26    48    1
    45    36    38    1
    46    15    38    1
    47    16    38    1
    48    11    36    1
    49    12    36    1
    50    27    28    3
    51     1    27    1
@<TRIPOS>SUBSTRUCTURE
     1 lig         1 TEMP              0 ****  ****    0 ROOT


########## Name:		ligand
########## HA_RMSDs:		17.3539
########## HA_RMSDh:		17.3278
########## HA_RMSDm:		13.9427
########## Cluster Size:	4
##########    Grid Score:          -16.390936
##########      Grid_vdw:          -15.918103
##########       Grid_es:           -0.472832
##########    Int_energy:            3.206254

@<TRIPOS>MOLECULE
ligand
 48 51 1 0 0
SMALL
No Charge or Current Charge


@<TRIPOS>ATOM
      1 H1         34.7797   20.6572   29.6728 H       1  lig         0.1670
      2 H2         33.8858   11.4100   28.2709 H       1  lig         0.1473
      3 H3         33.9145   12.5769   30.3222 H       1  lig         0.0559
      4 H4         32.2111   12.6209   30.7126 H       1  lig         0.0575
      5 H5         30.6968   12.5370   26.1648 H       1  lig         0.0688
      6 H6         31.7474   13.1803   24.9042 H       1  lig         0.0740
      7 H7         34.1756   14.9148   30.6058 H       1  lig         0.0477
      8 H8         33.1487   14.4167   31.9450 H       1  lig         0.0465
      9 H9         30.7656   14.9272   26.4341 H       1  lig         0.0495
     10 H10        32.5273   14.9764   26.3530 H       1  lig         0.0527
     11 H11        33.5793   16.8119   32.7350 H       1  lig         0.0459
     12 H12        31.8998   16.3889   33.1302 H       1  lig         0.0459
     13 H13        29.9756   16.4210   28.5119 H       1  lig         0.0438
     14 H14        31.2061   16.8327   27.3518 H       1  lig         0.0425
     15 H15        31.3691   18.5470   33.5364 H       1  lig         0.0681
     16 H16        33.0042   19.0518   33.3189 H       1  lig         0.0571
     17 H17        30.5449   18.7609   28.7851 H       1  lig         0.0423
     18 H18        32.2465   18.3920   28.7855 H       1  lig         0.0489
     19 H19        30.7807   13.8995   28.5479 H       1  lig         0.0634
     20 H20        31.2184   15.1613   30.7894 H       1  lig         0.0564
     21 H21        32.8577   15.8264   28.6243 H       1  lig         0.0555
     22 H22        33.1447   17.1653   30.6276 H       1  lig         0.0551
     23 H23        29.7195   17.6971   32.2313 H       1  lig         0.0433
     24 H24        29.0814   18.3250   30.7352 H       1  lig         0.0424
     25 H25        29.4928   16.6185   30.8562 H       1  lig         0.0357
     26 H26        30.5922   20.5280   30.8135 H       1  lig         0.4072
     27 C1         33.9832   20.2192   30.2342 C.1     1  lig        -0.1335
     28 C2         33.0065   19.7104   30.8795 C.1     1  lig        -0.1688
     29 C3         33.2141   12.1694   27.8882 C.2     1  lig        -0.2674
     30 C4         32.6102   13.2034   28.6809 C.2     1  lig        -0.0292
     31 C5         32.7799   12.1351   26.4664 C.2     1  lig         0.5673
     32 C6         32.9993   13.1566   30.1782 C.3     1  lig        -0.0559
     33 C7         31.6511   13.0238   25.9643 C.3     1  lig        -0.1823
     34 C8         33.1858   14.5389   30.8640 C.3     1  lig        -0.0728
     35 C9         31.6757   14.3955   26.7190 C.3     1  lig        -0.0705
     36 C10        32.5309   17.0390   32.5278 C.3     1  lig        -0.0740
     37 C11        31.0326   16.6788   28.4120 C.3     1  lig        -0.0723
     38 C12        32.1993   18.5173   32.8320 C.3     1  lig        -0.0690
     39 C13        31.2772   18.0318   29.1325 C.3     1  lig        -0.0643
     40 C14        31.7747   14.2602   28.2693 C.3     1  lig        -0.0353
     41 C15        32.1383   15.5844   30.3795 C.3     1  lig        -0.0466
     42 C16        31.8741   15.5078   28.9861 C.3     1  lig        -0.0538
     43 C17        32.1928   16.8438   31.0605 C.3     1  lig        -0.0659
     44 C18        31.7687   19.1510   31.4987 C.3     1  lig         0.2372
     45 C19        31.2546   17.9770   30.6724 C.3     1  lig        -0.0680
     46 C20        29.8011   17.6206   31.1574 C.3     1  lig        -0.0802
     47 O1         33.3114   11.3335   25.7775 O.2     1  lig        -0.5348
     48 O2         30.8650   20.2409   31.7080 O.3     1  lig        -0.5805
@<TRIPOS>BOND
     1    31    47    2
     2    31    33    1
     3    29    31    1
     4    33    35    1
     5     5    33    1
     6     6    33    1
     7    29    30    2
     8     2    29    1
     9    30    32    1
    10    30    40    1
    11    32    34    1
    12     3    32    1
    13     4    32    1
    14    35    40    1
    15    40    42    1
    16    19    40    1
    17     9    35    1
    18    10    35    1
    19    41    42    1
    20    37    42    1
    21    21    42    1
    22    34    41    1
    23    41    43    1
    24    20    41    1
    25     7    34    1
    26     8    34    1
    27    37    39    1
    28    13    37    1
    29    14    37    1
    30    39    45    1
    31    17    39    1
    32    18    39    1
    33    43    45    1
    34    45    46    1
    35    44    45    1
    36    36    43    1
    37    22    43    1
    38    23    46    1
    39    24    46    1
    40    25    46    1
    41    44    48    1
    42    38    44    1
    43    28    44    1
    44    26    48    1
    45    36    38    1
    46    15    38    1
    47    16    38    1
    48    11    36    1
    49    12    36    1
    50    27    28    3
    51     1    27    1
@<TRIPOS>SUBSTRUCTURE
     1 lig         1 TEMP              0 ****  ****    0 ROOT


########## Name:		ligand
########## HA_RMSDs:		17.7437
########## HA_RMSDh:		17.6688
########## HA_RMSDm:		14.6384
########## Cluster Size:	1
##########    Grid Score:          -16.372662
##########      Grid_vdw:          -15.758204
##########       Grid_es:           -0.614458
##########    Int_energy:            3.017751

@<TRIPOS>MOLECULE
ligand
 48 51 1 0 0
SMALL
No Charge or Current Charge


@<TRIPOS>ATOM
      1 H1         33.9136   12.1296   32.5299 H       1  lig         0.1670
      2 H2         33.7509   21.3467   29.9781 H       1  lig         0.1473
      3 H3         35.1350   19.5707   29.2708 H       1  lig         0.0559
      4 H4         34.4477   19.2064   27.7052 H       1  lig         0.0575
      5 H5         30.0081   20.6389   28.8097 H       1  lig         0.0688
      6 H6         29.4863   20.5784   30.4922 H       1  lig         0.0740
      7 H7         35.0125   17.3184   29.9963 H       1  lig         0.0477
      8 H8         35.5790   17.2193   28.3334 H       1  lig         0.0465
      9 H9         29.7519   18.3208   29.4021 H       1  lig         0.0495
     10 H10        30.6967   18.5007   30.8812 H       1  lig         0.0527
     11 H11        35.9412   14.7627   28.9503 H       1  lig         0.0459
     12 H12        35.3708   14.8363   27.2696 H       1  lig         0.0459
     13 H13        30.6137   16.1377   28.1121 H       1  lig         0.0438
     14 H14        30.3245   16.2805   29.8224 H       1  lig         0.0425
     15 H15        34.9250   12.6217   27.2412 H       1  lig         0.0681
     16 H16        35.5923   12.4070   28.8174 H       1  lig         0.0571
     17 H17        30.6610   13.9218   29.0926 H       1  lig         0.0423
     18 H18        31.7241   14.4587   30.3627 H       1  lig         0.0489
     19 H19        31.6438   18.5749   28.0307 H       1  lig         0.0634
     20 H20        33.3940   16.6925   27.5822 H       1  lig         0.0564
     21 H21        32.4959   16.9815   30.2141 H       1  lig         0.0555
     22 H22        33.9550   15.0898   29.7888 H       1  lig         0.0551
     23 H23        33.1236   13.6680   26.3430 H       1  lig         0.0433
     24 H24        31.4428   13.5104   26.7787 H       1  lig         0.0424
     25 H25        32.1388   15.1123   26.5658 H       1  lig         0.0357
     26 H26        31.9019   11.6095   28.5567 H       1  lig         0.4072
     27 C1         33.7256   12.3574   31.5032 C.1     1  lig        -0.1335
     28 C2         33.5325   12.6093   30.2668 C.1     1  lig        -0.1688
     29 C3         32.8996   20.6889   29.8482 C.2     1  lig        -0.2674
     30 C4         32.9547   19.3878   29.2430 C.2     1  lig        -0.0292
     31 C5         31.5360   21.1487   30.2229 C.2     1  lig         0.5673
     32 C6         34.3690   18.9735   28.7698 C.3     1  lig        -0.0559
     33 C7         30.2987   20.3585   29.8220 C.3     1  lig        -0.1823
     34 C8         34.7231   17.4717   28.9569 C.3     1  lig        -0.0728
     35 C9         30.6158   18.8252   29.8397 C.3     1  lig        -0.0705
     36 C10        35.1233   14.5015   28.2747 C.3     1  lig        -0.0740
     37 C11        31.0917   16.0494   29.0906 C.3     1  lig        -0.0723
     38 C12        34.8568   12.9793   28.2677 C.3     1  lig        -0.0690
     39 C13        31.5132   14.5699   29.2983 C.3     1  lig        -0.0643
     40 C14        31.9227   18.4431   29.0797 C.3     1  lig        -0.0353
     41 C15        33.5134   16.5380   28.6569 C.3     1  lig        -0.0466
     42 C16        32.2796   17.0471   29.1423 C.3     1  lig        -0.0538
     43 C17        33.8136   15.1379   28.7050 C.3     1  lig        -0.0659
     44 C18        33.4231   12.7851   28.7885 C.3     1  lig         0.2372
     45 C19        32.7244   14.1022   28.4684 C.3     1  lig        -0.0680
     46 C20        32.3413   14.1089   26.9426 C.3     1  lig        -0.0802
     47 O1         31.4713   22.1895   30.7817 O.2     1  lig        -0.5348
     48 O2         32.8334   11.5935   28.2585 O.3     1  lig        -0.5805
@<TRIPOS>BOND
     1    31    47    2
     2    31    33    1
     3    29    31    1
     4    33    35    1
     5     5    33    1
     6     6    33    1
     7    29    30    2
     8     2    29    1
     9    30    32    1
    10    30    40    1
    11    32    34    1
    12     3    32    1
    13     4    32    1
    14    35    40    1
    15    40    42    1
    16    19    40    1
    17     9    35    1
    18    10    35    1
    19    41    42    1
    20    37    42    1
    21    21    42    1
    22    34    41    1
    23    41    43    1
    24    20    41    1
    25     7    34    1
    26     8    34    1
    27    37    39    1
    28    13    37    1
    29    14    37    1
    30    39    45    1
    31    17    39    1
    32    18    39    1
    33    43    45    1
    34    45    46    1
    35    44    45    1
    36    36    43    1
    37    22    43    1
    38    23    46    1
    39    24    46    1
    40    25    46    1
    41    44    48    1
    42    38    44    1
    43    28    44    1
    44    26    48    1
    45    36    38    1
    46    15    38    1
    47    16    38    1
    48    11    36    1
    49    12    36    1
    50    27    28    3
    51     1    27    1
@<TRIPOS>SUBSTRUCTURE
     1 lig         1 TEMP              0 ****  ****    0 ROOT


########## Name:		ligand
########## HA_RMSDs:		15.4656
########## HA_RMSDh:		15.0696
########## HA_RMSDm:		10.3532
########## Cluster Size:	2
##########    Grid Score:          -16.367424
##########      Grid_vdw:          -15.656266
##########       Grid_es:           -0.711159
##########    Int_energy:            3.010424

@<TRIPOS>MOLECULE
ligand
 48 51 1 0 0
SMALL
No Charge or Current Charge


@<TRIPOS>ATOM
      1 H1         22.7976   22.7527   36.4347 H       1  lig         0.1670
      2 H2         14.0120   21.5434   32.7765 H       1  lig         0.1473
      3 H3         16.0225   22.2471   31.7601 H       1  lig         0.0559
      4 H4         16.4969   20.7980   30.9049 H       1  lig         0.0575
      5 H5         14.3934   17.7567   33.9557 H       1  lig         0.0688
      6 H6         14.1716   18.2490   35.6336 H       1  lig         0.0740
      7 H7         18.1299   22.4712   32.8199 H       1  lig         0.0477
      8 H8         18.5118   22.0217   31.1621 H       1  lig         0.0465
      9 H9         16.5660   17.7937   34.9895 H       1  lig         0.0495
     10 H10        16.3161   19.4035   35.6670 H       1  lig         0.0527
     11 H11        20.8944   22.5828   31.9070 H       1  lig         0.0459
     12 H12        20.9674   21.1820   30.8170 H       1  lig         0.0459
     13 H13        18.9870   17.7272   33.8461 H       1  lig         0.0438
     14 H14        18.5905   18.4353   35.3859 H       1  lig         0.0425
     15 H15        23.0944   20.7218   31.4233 H       1  lig         0.0681
     16 H16        23.1858   22.1408   32.3998 H       1  lig         0.0571
     17 H17        21.0469   18.2347   35.0180 H       1  lig         0.0423
     18 H18        20.4874   19.8394   35.3969 H       1  lig         0.0489
     19 H19        16.7277   18.6210   32.7953 H       1  lig         0.0634
     20 H20        18.8551   19.7692   31.8136 H       1  lig         0.0564
     21 H21        18.1204   20.4838   34.4149 H       1  lig         0.0555
     22 H22        20.2178   21.4019   33.6108 H       1  lig         0.0551
     23 H23        21.9565   18.7597   31.4704 H       1  lig         0.0433
     24 H24        21.8466   17.5948   32.7629 H       1  lig         0.0424
     25 H25        20.3844   18.1100   31.9307 H       1  lig         0.0357
     26 H26        23.5914   18.9686   34.3768 H       1  lig         0.4072
     27 C1         22.6689   22.0520   35.6385 C.1     1  lig        -0.1335
     28 C2         22.5442   21.2319   34.6684 C.1     1  lig        -0.1688
     29 C3         14.5701   20.7407   33.2440 C.2     1  lig        -0.2674
     30 C4         15.9349   20.4094   32.9445 C.2     1  lig        -0.0292
     31 C5         13.8999   19.8267   34.2067 C.2     1  lig         0.5673
     32 C6         16.5793   21.3126   31.8653 C.3     1  lig        -0.0559
     33 C7         14.5751   18.5485   34.6823 C.3     1  lig        -0.1823
     34 C8         18.0769   21.6613   32.0926 C.3     1  lig        -0.0728
     35 C9         16.1209   18.7717   34.7956 C.3     1  lig        -0.0705
     36 C10        21.1366   21.5198   31.8373 C.3     1  lig        -0.0740
     37 C11        19.0075   18.6628   34.4101 C.3     1  lig        -0.0723
     38 C12        22.6020   21.2436   32.2428 C.3     1  lig        -0.0690
     39 C13        20.4887   19.0797   34.6142 C.3     1  lig        -0.0643
     40 C14        16.7571   19.4283   33.5323 C.3     1  lig        -0.0353
     41 C15        18.8836   20.4570   32.6616 C.3     1  lig        -0.0466
     42 C16        18.1669   19.7139   33.6370 C.3     1  lig        -0.0538
     43 C17        20.2923   20.6873   32.7857 C.3     1  lig        -0.0659
     44 C18        22.5478   20.3302   33.4787 C.3     1  lig         0.2372
     45 C19        21.2063   19.6150   33.3600 C.3     1  lig        -0.0680
     46 C20        21.3484   18.4535   32.3084 C.3     1  lig        -0.0802
     47 O1         12.7960   20.1159   34.5189 O.2     1  lig        -0.5348
     48 O2         23.7150   19.5070   33.5695 O.3     1  lig        -0.5805
@<TRIPOS>BOND
     1    31    47    2
     2    31    33    1
     3    29    31    1
     4    33    35    1
     5     5    33    1
     6     6    33    1
     7    29    30    2
     8     2    29    1
     9    30    32    1
    10    30    40    1
    11    32    34    1
    12     3    32    1
    13     4    32    1
    14    35    40    1
    15    40    42    1
    16    19    40    1
    17     9    35    1
    18    10    35    1
    19    41    42    1
    20    37    42    1
    21    21    42    1
    22    34    41    1
    23    41    43    1
    24    20    41    1
    25     7    34    1
    26     8    34    1
    27    37    39    1
    28    13    37    1
    29    14    37    1
    30    39    45    1
    31    17    39    1
    32    18    39    1
    33    43    45    1
    34    45    46    1
    35    44    45    1
    36    36    43    1
    37    22    43    1
    38    23    46    1
    39    24    46    1
    40    25    46    1
    41    44    48    1
    42    38    44    1
    43    28    44    1
    44    26    48    1
    45    36    38    1
    46    15    38    1
    47    16    38    1
    48    11    36    1
    49    12    36    1
    50    27    28    3
    51     1    27    1
@<TRIPOS>SUBSTRUCTURE
     1 lig         1 TEMP              0 ****  ****    0 ROOT


########## Name:		ligand
########## HA_RMSDs:		15.0467
########## HA_RMSDh:		14.8401
########## HA_RMSDm:		9.9578
########## Cluster Size:	2
##########    Grid Score:          -16.254322
##########      Grid_vdw:          -16.918730
##########       Grid_es:            0.664409
##########    Int_energy:            3.322352

@<TRIPOS>MOLECULE
ligand
 48 51 1 0 0
SMALL
No Charge or Current Charge


@<TRIPOS>ATOM
      1 H1         23.5200   13.6236   29.3901 H       1  lig         0.1670
      2 H2         18.1387   19.7271   33.6171 H       1  lig         0.1473
      3 H3         19.1095   17.7687   34.5074 H       1  lig         0.0559
      4 H4         20.4418   18.4350   35.4224 H       1  lig         0.0575
      5 H5         21.0247   22.2940   32.6385 H       1  lig         0.0688
      6 H6         20.5396   22.2058   30.9462 H       1  lig         0.0740
      7 H7         20.4974   16.2364   33.3497 H       1  lig         0.0477
      8 H8         21.0697   16.1853   35.0129 H       1  lig         0.0465
      9 H9         22.5882   20.8508   31.5146 H       1  lig         0.0495
     10 H10        21.3074   19.9018   30.7583 H       1  lig         0.0527
     11 H11        22.4238   14.1981   34.1387 H       1  lig         0.0459
     12 H12        23.4290   15.0880   35.3021 H       1  lig         0.0459
     13 H13        24.3850   19.1609   32.5579 H       1  lig         0.0438
     14 H14        23.6236   19.0263   30.9986 H       1  lig         0.0425
     15 H15        25.2970   14.0069   34.6346 H       1  lig         0.0681
     16 H16        24.3979   12.9832   33.5766 H       1  lig         0.0571
     17 H17        25.5448   17.4634   31.2744 H       1  lig         0.0423
     18 H18        24.0398   16.7095   30.8292 H       1  lig         0.0489
     19 H19        22.1195   19.9873   33.6499 H       1  lig         0.0634
     20 H20        22.8706   17.6290   34.4758 H       1  lig         0.0564
     21 H21        21.8678   17.7952   31.8712 H       1  lig         0.0555
     22 H22        22.7564   15.6366   32.5341 H       1  lig         0.0551
     23 H23        25.8162   16.2125   34.7458 H       1  lig         0.0433
     24 H24        26.5466   17.2226   33.5267 H       1  lig         0.0424
     25 H25        25.1225   17.7927   34.3888 H       1  lig         0.0357
     26 H26        26.8921   15.1733   31.7902 H       1  lig         0.4072
     27 C1         24.0023   13.8875   30.3062 C.1     1  lig        -0.1335
     28 C2         24.5740   14.2400   31.3916 C.1     1  lig        -0.1688
     29 C3         19.0994   19.9595   33.1727 C.2     1  lig        -0.2674
     30 C4         20.3169   19.2439   33.4333 C.2     1  lig        -0.0292
     31 C5         19.2473   21.1484   32.2919 C.2     1  lig         0.5673
     32 C6         20.1566   18.0723   34.4320 C.3     1  lig        -0.0559
     33 C7         20.6196   21.6459   31.8614 C.3     1  lig        -0.1823
     34 C8         21.0085   16.8094   34.1231 C.3     1  lig        -0.0728
     35 C9         21.5916   20.4331   31.6714 C.3     1  lig        -0.0705
     36 C10        23.3289   14.7982   34.2582 C.3     1  lig        -0.0740
     37 C11        23.7626   18.5077   31.9417 C.3     1  lig        -0.0723
     38 C12        24.5876   14.0229   33.8082 C.3     1  lig        -0.0690
     39 C13        24.5556   17.2050   31.6528 C.3     1  lig        -0.0643
     40 C14        21.5931   19.4331   32.8679 C.3     1  lig        -0.0353
     41 C15        22.4265   17.1697   33.5898 C.3     1  lig        -0.0466
     42 C16        22.4234   18.2675   32.6886 C.3     1  lig        -0.0538
     43 C17        23.2940   16.0464   33.3943 C.3     1  lig        -0.0659
     44 C18        25.1854   14.8085   32.6291 C.3     1  lig         0.2372
     45 C19        24.6995   16.2378   32.8438 C.3     1  lig        -0.0680
     46 C20        25.5911   16.9095   33.9524 C.3     1  lig        -0.0802
     47 O1         18.2486   21.7167   32.0102 O.2     1  lig        -0.5348
     48 O2         26.6001   14.6122   32.5364 O.3     1  lig        -0.5805
@<TRIPOS>BOND
     1    31    47    2
     2    31    33    1
     3    29    31    1
     4    33    35    1
     5     5    33    1
     6     6    33    1
     7    29    30    2
     8     2    29    1
     9    30    32    1
    10    30    40    1
    11    32    34    1
    12     3    32    1
    13     4    32    1
    14    35    40    1
    15    40    42    1
    16    19    40    1
    17     9    35    1
    18    10    35    1
    19    41    42    1
    20    37    42    1
    21    21    42    1
    22    34    41    1
    23    41    43    1
    24    20    41    1
    25     7    34    1
    26     8    34    1
    27    37    39    1
    28    13    37    1
    29    14    37    1
    30    39    45    1
    31    17    39    1
    32    18    39    1
    33    43    45    1
    34    45    46    1
    35    44    45    1
    36    36    43    1
    37    22    43    1
    38    23    46    1
    39    24    46    1
    40    25    46    1
    41    44    48    1
    42    38    44    1
    43    28    44    1
    44    26    48    1
    45    36    38    1
    46    15    38    1
    47    16    38    1
    48    11    36    1
    49    12    36    1
    50    27    28    3
    51     1    27    1
@<TRIPOS>SUBSTRUCTURE
     1 lig         1 TEMP              0 ****  ****    0 ROOT


########## Name:		ligand
########## HA_RMSDs:		15.1848
########## HA_RMSDh:		15.1498
########## HA_RMSDm:		10.5128
########## Cluster Size:	2
##########    Grid Score:          -16.244864
##########      Grid_vdw:          -16.088879
##########       Grid_es:           -0.155985
##########    Int_energy:            3.010417

@<TRIPOS>MOLECULE
ligand
 48 51 1 0 0
SMALL
No Charge or Current Charge


@<TRIPOS>ATOM
      1 H1         17.9302   16.0438   37.1440 H       1  lig         0.1670
      2 H2         21.1725   24.5359   34.0775 H       1  lig         0.1473
      3 H3         21.6647   22.3442   33.3534 H       1  lig         0.0559
      4 H4         20.7276   22.2539   31.8803 H       1  lig         0.0575
      5 H5         17.3512   25.3491   33.2953 H       1  lig         0.0688
      6 H6         17.0294   25.5309   35.0187 H       1  lig         0.0740
      7 H7         20.7456   20.3386   34.2178 H       1  lig         0.0477
      8 H8         21.0478   19.9928   32.5192 H       1  lig         0.0465
      9 H9         16.2701   23.3337   34.0433 H       1  lig         0.0495
     10 H10        17.3609   23.1510   35.4180 H       1  lig         0.0527
     11 H11        20.4798   17.6056   33.2439 H       1  lig         0.0459
     12 H12        19.8091   17.8689   31.6201 H       1  lig         0.0459
     13 H13        16.0635   20.9649   32.8110 H       1  lig         0.0438
     14 H14        16.0368   21.2416   34.5291 H       1  lig         0.0425
     15 H15        18.5296   16.0124   31.7620 H       1  lig         0.0681
     16 H16        19.2221   15.5793   33.2813 H       1  lig         0.0571
     17 H17        15.3409   18.9300   33.9115 H       1  lig         0.0423
     18 H18        16.6577   19.0243   35.0467 H       1  lig         0.0489
     19 H19        17.9527   22.7920   32.4941 H       1  lig         0.0634
     20 H20        18.7651   20.3621   32.0006 H       1  lig         0.0564
     21 H21        18.3374   21.0311   34.6813 H       1  lig         0.0555
     22 H22        18.8826   18.7085   34.2377 H       1  lig         0.0551
     23 H23        17.1992   17.6709   30.9703 H       1  lig         0.0433
     24 H24        15.6481   18.2005   31.5645 H       1  lig         0.0424
     25 H25        16.8901   19.3910   31.1961 H       1  lig         0.0357
     26 H26        15.5271   16.2460   33.4860 H       1  lig         0.4072
     27 C1         17.7610   16.3164   36.1250 C.1     1  lig        -0.1335
     28 C2         17.5736   16.6080   34.8965 C.1     1  lig        -0.1688
     29 C3         20.1227   24.2673   34.0638 C.2     1  lig        -0.2674
     30 C4         19.5981   23.0403   33.5334 C.2     1  lig        -0.0292
     31 C5         19.0972   25.2368   34.5324 C.2     1  lig         0.5673
     32 C6         20.6773   22.0906   32.9595 C.3     1  lig        -0.0559
     33 C7         17.6141   24.9948   34.2919 C.3     1  lig        -0.1823
     34 C8         20.4311   20.5751   33.2015 C.3     1  lig        -0.0728
     35 C9         17.3037   23.4621   34.3708 C.3     1  lig        -0.0705
     36 C10        19.5583   17.6779   32.6614 C.3     1  lig        -0.0740
     37 C11        16.5694   20.7120   33.7458 C.3     1  lig        -0.0723
     38 C12        18.7166   16.3864   32.7677 C.3     1  lig        -0.0690
     39 C13        16.3957   19.1907   34.0010 C.3     1  lig        -0.0643
     40 C14        18.2671   22.5794   33.5196 C.3     1  lig        -0.0353
     41 C15        18.9276   20.1924   33.0673 C.3     1  lig        -0.0466
     42 C16        18.0517   21.1577   33.6314 C.3     1  lig        -0.0538
     43 C17        18.6573   18.7892   33.1701 C.3     1  lig        -0.0659
     44 C18        17.3858   16.7860   33.4263 C.3     1  lig         0.2372
     45 C19        17.2305   18.2661   33.0940 C.3     1  lig        -0.0680
     46 C20        16.7212   18.3965   31.6112 C.3     1  lig        -0.0802
     47 O1         19.5061   26.2279   35.0329 O.2     1  lig        -0.5348
     48 O2         16.3231   15.9165   33.0225 O.3     1  lig        -0.5805
@<TRIPOS>BOND
     1    31    47    2
     2    31    33    1
     3    29    31    1
     4    33    35    1
     5     5    33    1
     6     6    33    1
     7    29    30    2
     8     2    29    1
     9    30    32    1
    10    30    40    1
    11    32    34    1
    12     3    32    1
    13     4    32    1
    14    35    40    1
    15    40    42    1
    16    19    40    1
    17     9    35    1
    18    10    35    1
    19    41    42    1
    20    37    42    1
    21    21    42    1
    22    34    41    1
    23    41    43    1
    24    20    41    1
    25     7    34    1
    26     8    34    1
    27    37    39    1
    28    13    37    1
    29    14    37    1
    30    39    45    1
    31    17    39    1
    32    18    39    1
    33    43    45    1
    34    45    46    1
    35    44    45    1
    36    36    43    1
    37    22    43    1
    38    23    46    1
    39    24    46    1
    40    25    46    1
    41    44    48    1
    42    38    44    1
    43    28    44    1
    44    26    48    1
    45    36    38    1
    46    15    38    1
    47    16    38    1
    48    11    36    1
    49    12    36    1
    50    27    28    3
    51     1    27    1
@<TRIPOS>SUBSTRUCTURE
     1 lig         1 TEMP              0 ****  ****    0 ROOT


########## Name:		ligand
########## HA_RMSDs:		15.7639
########## HA_RMSDh:		15.3111
########## HA_RMSDm:		10.1644
########## Cluster Size:	1
##########    Grid Score:          -16.231970
##########      Grid_vdw:          -17.326294
##########       Grid_es:            1.094324
##########    Int_energy:            3.010440

@<TRIPOS>MOLECULE
ligand
 48 51 1 0 0
SMALL
No Charge or Current Charge


@<TRIPOS>ATOM
      1 H1         23.8357   19.9667   36.2678 H       1  lig         0.1670
      2 H2         14.7366   17.7729   34.1640 H       1  lig         0.1473
      3 H3         16.3127   19.0925   33.0044 H       1  lig         0.0559
      4 H4         16.7930   18.0029   31.7245 H       1  lig         0.0575
      5 H5         15.9773   13.9869   34.2123 H       1  lig         0.0688
      6 H6         16.0845   14.0366   35.9709 H       1  lig         0.0740
      7 H7         18.5488   19.5155   33.6641 H       1  lig         0.0477
      8 H8         18.5931   19.5359   31.9052 H       1  lig         0.0465
      9 H9         18.2992   14.2513   34.7858 H       1  lig         0.0495
     10 H10        17.9668   15.5808   35.8971 H       1  lig         0.0527
     11 H11        20.9655   20.4076   32.3032 H       1  lig         0.0459
     12 H12        20.9977   19.3312   30.8904 H       1  lig         0.0459
     13 H13        20.3600   14.9525   33.2256 H       1  lig         0.0438
     14 H14        20.2331   15.2014   34.9435 H       1  lig         0.0425
     15 H15        23.2530   19.2075   30.9377 H       1  lig         0.0681
     16 H16        23.3486   20.3611   32.2166 H       1  lig         0.0571
     17 H17        22.5326   15.6104   34.0749 H       1  lig         0.0423
     18 H18        21.8334   16.9359   34.9613 H       1  lig         0.0489
     19 H19        17.8044   15.5597   32.8969 H       1  lig         0.0634
     20 H20        19.4309   17.3195   31.8644 H       1  lig         0.0564
     21 H21        19.2302   17.2677   34.6526 H       1  lig         0.0555
     22 H22        20.9060   18.7627   33.7336 H       1  lig         0.0551
     23 H23        22.4819   17.0890   30.6837 H       1  lig         0.0433
     24 H24        22.8658   15.6702   31.6213 H       1  lig         0.0424
     25 H25        21.1859   16.0367   31.2481 H       1  lig         0.0357
     26 H26        24.7039   16.9870   33.1751 H       1  lig         0.4072
     27 C1         23.6339   19.4490   35.3553 C.1     1  lig        -0.1335
     28 C2         23.4137   18.8571   34.2460 C.1     1  lig        -0.1688
     29 C3         15.5086   17.0228   34.2891 C.2     1  lig        -0.2674
     30 C4         16.7983   17.0619   33.6587 C.2     1  lig        -0.0292
     31 C5         15.2379   15.7978   35.0874 C.2     1  lig         0.5673
     32 C6         17.0184   18.2971   32.7524 C.3     1  lig        -0.0559
     33 C7         16.1990   14.6179   35.0729 C.3     1  lig        -0.1823
     34 C8         18.4532   18.8946   32.7736 C.3     1  lig        -0.0728
     35 C9         17.6726   15.1314   34.9441 C.3     1  lig        -0.0705
     36 C10        21.3484   19.4622   31.9119 C.3     1  lig        -0.0740
     37 C11        20.3660   15.7224   34.0009 C.3     1  lig        -0.0723
     38 C12        22.8928   19.4185   31.9437 C.3     1  lig        -0.0690
     39 C13        21.7688   16.3865   34.0211 C.3     1  lig        -0.0643
     40 C14        17.8801   16.1709   33.8004 C.3     1  lig        -0.0353
     41 C15        19.5508   17.7921   32.8418 C.3     1  lig        -0.0466
     42 C16        19.2116   16.7171   33.7058 C.3     1  lig        -0.0538
     43 C17        20.8945   18.2811   32.7513 C.3     1  lig        -0.0659
     44 C18        23.2772   18.2635   32.8832 C.3     1  lig         0.2372
     45 C19        22.0755   17.3258   32.8387 C.3     1  lig        -0.0680
     46 C20        22.1455   16.4834   31.5118 C.3     1  lig        -0.0802
     47 O1         14.2080   15.7708   35.6690 O.2     1  lig        -0.5348
     48 O2         24.5473   17.7059   32.5304 O.3     1  lig        -0.5805
@<TRIPOS>BOND
     1    31    47    2
     2    31    33    1
     3    29    31    1
     4    33    35    1
     5     5    33    1
     6     6    33    1
     7    29    30    2
     8     2    29    1
     9    30    32    1
    10    30    40    1
    11    32    34    1
    12     3    32    1
    13     4    32    1
    14    35    40    1
    15    40    42    1
    16    19    40    1
    17     9    35    1
    18    10    35    1
    19    41    42    1
    20    37    42    1
    21    21    42    1
    22    34    41    1
    23    41    43    1
    24    20    41    1
    25     7    34    1
    26     8    34    1
    27    37    39    1
    28    13    37    1
    29    14    37    1
    30    39    45    1
    31    17    39    1
    32    18    39    1
    33    43    45    1
    34    45    46    1
    35    44    45    1
    36    36    43    1
    37    22    43    1
    38    23    46    1
    39    24    46    1
    40    25    46    1
    41    44    48    1
    42    38    44    1
    43    28    44    1
    44    26    48    1
    45    36    38    1
    46    15    38    1
    47    16    38    1
    48    11    36    1
    49    12    36    1
    50    27    28    3
    51     1    27    1
@<TRIPOS>SUBSTRUCTURE
     1 lig         1 TEMP              0 ****  ****    0 ROOT


########## Name:		ligand
########## HA_RMSDs:		16.7412
########## HA_RMSDh:		16.6339
########## HA_RMSDm:		13.7592
########## Cluster Size:	1
##########    Grid Score:          -16.179152
##########      Grid_vdw:          -16.526073
##########       Grid_es:            0.346921
##########    Int_energy:            3.013047

@<TRIPOS>MOLECULE
ligand
 48 51 1 0 0
SMALL
No Charge or Current Charge


@<TRIPOS>ATOM
      1 H1          2.6917   19.4198    9.2106 H       1  lig         0.1670
      2 H2          8.4415   25.0820    4.0426 H       1  lig         0.1473
      3 H3          7.1163   25.5461    5.9396 H       1  lig         0.0559
      4 H4          8.3284   25.5925    7.1984 H       1  lig         0.0575
      5 H5         11.3333   22.5343    5.0536 H       1  lig         0.0688
      6 H6         10.6787   21.3369    3.9379 H       1  lig         0.0740
      7 H7          5.7601   24.0018    7.1188 H       1  lig         0.0477
      8 H8          6.3009   25.1437    8.3434 H       1  lig         0.0465
      9 H9         10.1153   20.9216    6.3598 H       1  lig         0.0495
     10 H10         8.6962   21.0128    5.3155 H       1  lig         0.0527
     11 H11         4.5882   23.9040    9.7843 H       1  lig         0.0459
     12 H12         5.9860   24.3068   10.8040 H       1  lig         0.0459
     13 H13         9.2989   21.0733    8.9060 H       1  lig         0.0438
     14 H14         8.5627   20.1340    7.6390 H       1  lig         0.0425
     15 H15         5.3045   22.8962   12.4318 H       1  lig         0.0681
     16 H16         3.8385   22.5432   11.5941 H       1  lig         0.0571
     17 H17         7.6958   19.5524    9.9018 H       1  lig         0.0423
     18 H18         6.4796   20.0047    8.7408 H       1  lig         0.0489
     19 H19         9.7496   23.0735    7.2317 H       1  lig         0.0634
     20 H20         7.9781   23.6324    9.0639 H       1  lig         0.0564
     21 H21         7.1827   21.8895    7.0275 H       1  lig         0.0555
     22 H22         5.5903   22.2196    8.8285 H       1  lig         0.0551
     23 H23         7.5178   22.5139   12.1124 H       1  lig         0.0433
     24 H24         8.3294   21.0011   11.8082 H       1  lig         0.0424
     25 H25         8.7057   22.4040   10.8153 H       1  lig         0.0357
     26 H26         6.1431   19.5750   12.0749 H       1  lig         0.4072
     27 C1          3.5169   19.8861    9.7035 C.1     1  lig        -0.1335
     28 C2          4.4782   20.4580   10.3184 C.1     1  lig        -0.1688
     29 C3          8.7959   24.1929    4.5508 C.2     1  lig        -0.2674
     30 C4          8.5240   23.8711    5.9237 C.2     1  lig        -0.0292
     31 C5          9.7072   23.2469    3.8538 C.2     1  lig         0.5673
     32 C6          7.6564   24.9227    6.6565 C.3     1  lig        -0.0559
     33 C7         10.4206   22.1359    4.6106 C.3     1  lig        -0.1823
     34 C8          6.6303   24.3508    7.6743 C.3     1  lig        -0.0728
     35 C9          9.5040   21.6002    5.7616 C.3     1  lig        -0.0705
     36 C10         5.4168   23.4906   10.3641 C.3     1  lig        -0.0740
     37 C11         8.3659   20.9231    8.3576 C.3     1  lig        -0.0723
     38 C12         4.9142   22.5444   11.4777 C.3     1  lig        -0.0690
     39 C13         7.2924   20.4019    9.3503 C.3     1  lig        -0.0643
     40 C14         8.8906   22.7231    6.6530 C.3     1  lig        -0.0353
     41 C15         7.2017   23.1419    8.4725 C.3     1  lig        -0.0466
     42 C16         7.9829   22.2636    7.6754 C.3     1  lig        -0.0538
     43 C17         6.3389   22.6456    9.5031 C.3     1  lig        -0.0659
     44 C18         5.4926   21.1548   11.1633 C.3     1  lig         0.2372
     45 C19         6.7457   21.4448   10.3443 C.3     1  lig        -0.0680
     46 C20         7.8965   21.8794   11.3251 C.3     1  lig        -0.0802
     47 O1          9.8950   23.4545    2.7043 O.2     1  lig        -0.5348
     48 O2          5.6622   20.3797   12.3545 O.3     1  lig        -0.5805
@<TRIPOS>BOND
     1    31    47    2
     2    31    33    1
     3    29    31    1
     4    33    35    1
     5     5    33    1
     6     6    33    1
     7    29    30    2
     8     2    29    1
     9    30    32    1
    10    30    40    1
    11    32    34    1
    12     3    32    1
    13     4    32    1
    14    35    40    1
    15    40    42    1
    16    19    40    1
    17     9    35    1
    18    10    35    1
    19    41    42    1
    20    37    42    1
    21    21    42    1
    22    34    41    1
    23    41    43    1
    24    20    41    1
    25     7    34    1
    26     8    34    1
    27    37    39    1
    28    13    37    1
    29    14    37    1
    30    39    45    1
    31    17    39    1
    32    18    39    1
    33    43    45    1
    34    45    46    1
    35    44    45    1
    36    36    43    1
    37    22    43    1
    38    23    46    1
    39    24    46    1
    40    25    46    1
    41    44    48    1
    42    38    44    1
    43    28    44    1
    44    26    48    1
    45    36    38    1
    46    15    38    1
    47    16    38    1
    48    11    36    1
    49    12    36    1
    50    27    28    3
    51     1    27    1
@<TRIPOS>SUBSTRUCTURE
     1 lig         1 TEMP              0 ****  ****    0 ROOT


########## Name:		ligand
########## HA_RMSDs:		18.0782
########## HA_RMSDh:		17.9475
########## HA_RMSDm:		14.4320
########## Cluster Size:	3
##########    Grid Score:          -16.071026
##########      Grid_vdw:          -15.488032
##########       Grid_es:           -0.582994
##########    Int_energy:            3.023981

@<TRIPOS>MOLECULE
ligand
 48 51 1 0 0
SMALL
No Charge or Current Charge


@<TRIPOS>ATOM
      1 H1         31.0945    9.4676   29.0048 H       1  lig         0.1670
      2 H2         33.2973   18.2523   32.0153 H       1  lig         0.1473
      3 H3         34.6639   16.3807   31.5685 H       1  lig         0.0559
      4 H4         35.3547   16.8244   30.0251 H       1  lig         0.0575
      5 H5         31.6412   19.5091   28.6162 H       1  lig         0.0688
      6 H6         30.0384   19.1504   29.2558 H       1  lig         0.0740
      7 H7         33.9383   14.2653   30.7854 H       1  lig         0.0477
      8 H8         35.5490   14.4624   30.1050 H       1  lig         0.0465
      9 H9         30.9226   17.4318   27.6371 H       1  lig         0.0495
     10 H10        30.4593   16.7519   29.1978 H       1  lig         0.0527
     11 H11        35.2177   12.0090   29.4586 H       1  lig         0.0459
     12 H12        36.0923   12.8185   28.1412 H       1  lig         0.0459
     13 H13        32.3564   15.5986   26.3118 H       1  lig         0.0438
     14 H14        30.8970   15.3129   27.2163 H       1  lig         0.0425
     15 H15        35.7143   11.0975   26.7273 H       1  lig         0.0681
     16 H16        34.9756   10.1594   27.9722 H       1  lig         0.0571
     17 H17        31.5557   13.3679   25.8047 H       1  lig         0.0423
     18 H18        31.3431   13.0124   27.4959 H       1  lig         0.0489
     19 H19        33.2155   17.3098   28.1396 H       1  lig         0.0634
     20 H20        34.6284   15.1194   28.0224 H       1  lig         0.0564
     21 H21        32.0843   14.9220   29.1650 H       1  lig         0.0555
     22 H22        33.2855   12.8338   28.8742 H       1  lig         0.0551
     23 H23        35.2312   13.0014   25.5921 H       1  lig         0.0433
     24 H24        33.7800   13.4089   24.7160 H       1  lig         0.0424
     25 H25        34.4760   14.5750   25.8348 H       1  lig         0.0357
     26 H26        32.6319   10.9570   25.1409 H       1  lig         0.4072
     27 C1         31.7373   10.0490   28.3802 C.1     1  lig        -0.1335
     28 C2         32.5338   10.7186   27.6409 C.1     1  lig        -0.1688
     29 C3         32.7966   18.0682   31.0720 C.2     1  lig        -0.2674
     30 C4         33.2238   17.1101   30.0914 C.2     1  lig        -0.0292
     31 C5         31.6305   18.8989   30.6703 C.2     1  lig         0.5673
     32 C6         34.4990   16.3283   30.4894 C.3     1  lig        -0.0559
     33 C7         31.0683   18.8393   29.2574 C.3     1  lig        -0.1823
     34 C8         34.5264   14.8333   30.0648 C.3     1  lig        -0.0728
     35 C9         31.1956   17.3842   28.6932 C.3     1  lig        -0.0705
     36 C10        35.1637   12.3209   28.4130 C.3     1  lig        -0.0740
     37 C11        31.9423   15.0292   27.1473 C.3     1  lig        -0.0723
     38 C12        34.9212   11.1181   27.4736 C.3     1  lig        -0.0690
     39 C13        32.0001   13.5201   26.7885 C.3     1  lig        -0.0643
     40 C14        32.6143   16.7615   28.8702 C.3     1  lig        -0.0353
     41 C15        33.9008   14.6080   28.6567 C.3     1  lig        -0.0466
     42 C16        32.7411   15.3950   28.4269 C.3     1  lig        -0.0538
     43 C17        34.0003   13.2651   28.1672 C.3     1  lig        -0.0659
     44 C18        33.5696   11.3684   26.7845 C.3     1  lig         0.2372
     45 C19        33.4032   12.8837   26.8207 C.3     1  lig        -0.0680
     46 C20        34.2841   13.5125   25.6789 C.3     1  lig        -0.0802
     47 O1         31.2195   19.6507   31.4862 O.2     1  lig        -0.5348
     48 O2         33.5163   10.7414   25.4990 O.3     1  lig        -0.5805
@<TRIPOS>BOND
     1    31    47    2
     2    31    33    1
     3    29    31    1
     4    33    35    1
     5     5    33    1
     6     6    33    1
     7    29    30    2
     8     2    29    1
     9    30    32    1
    10    30    40    1
    11    32    34    1
    12     3    32    1
    13     4    32    1
    14    35    40    1
    15    40    42    1
    16    19    40    1
    17     9    35    1
    18    10    35    1
    19    41    42    1
    20    37    42    1
    21    21    42    1
    22    34    41    1
    23    41    43    1
    24    20    41    1
    25     7    34    1
    26     8    34    1
    27    37    39    1
    28    13    37    1
    29    14    37    1
    30    39    45    1
    31    17    39    1
    32    18    39    1
    33    43    45    1
    34    45    46    1
    35    44    45    1
    36    36    43    1
    37    22    43    1
    38    23    46    1
    39    24    46    1
    40    25    46    1
    41    44    48    1
    42    38    44    1
    43    28    44    1
    44    26    48    1
    45    36    38    1
    46    15    38    1
    47    16    38    1
    48    11    36    1
    49    12    36    1
    50    27    28    3
    51     1    27    1
@<TRIPOS>SUBSTRUCTURE
     1 lig         1 TEMP              0 ****  ****    0 ROOT


########## Name:		ligand
########## HA_RMSDs:		14.3812
########## HA_RMSDh:		14.3318
########## HA_RMSDm:		8.2585
########## Cluster Size:	4
##########    Grid Score:          -16.020393
##########      Grid_vdw:          -15.916607
##########       Grid_es:           -0.103787
##########    Int_energy:            3.178702

@<TRIPOS>MOLECULE
ligand
 48 51 1 0 0
SMALL
No Charge or Current Charge


@<TRIPOS>ATOM
      1 H1         17.2277   22.4321   30.6114 H       1  lig         0.1670
      2 H2         24.8103   16.8645   31.3616 H       1  lig         0.1473
      3 H3         24.2608   18.7650   32.6486 H       1  lig         0.0559
      4 H4         23.6434   18.0223   34.1058 H       1  lig         0.0575
      5 H5         22.0647   14.0390   31.9558 H       1  lig         0.0688
      6 H6         21.6116   14.1108   30.2540 H       1  lig         0.0740
      7 H7         22.3495   20.1395   32.3806 H       1  lig         0.0477
      8 H8         22.7009   20.1983   34.1038 H       1  lig         0.0465
      9 H9         20.0279   15.3114   31.8052 H       1  lig         0.0495
     10 H10        20.6573   16.3367   30.5147 H       1  lig         0.0527
     11 H11        20.9230   22.0380   34.0686 H       1  lig         0.0459
     12 H12        20.7316   21.1075   35.5697 H       1  lig         0.0459
     13 H13        18.8722   16.8818   33.6412 H       1  lig         0.0438
     14 H14        18.7193   17.0269   31.9135 H       1  lig         0.0425
     15 H15        18.6977   22.0094   35.9620 H       1  lig         0.0681
     16 H16        18.8403   23.0679   34.6074 H       1  lig         0.0571
     17 H17        17.0777   18.4354   33.1509 H       1  lig         0.0423
     18 H18        18.0745   19.2951   32.0112 H       1  lig         0.0489
     19 H19        21.4402   16.2802   33.4150 H       1  lig         0.0634
     20 H20        21.0112   18.5950   34.5400 H       1  lig         0.0564
     21 H21        20.5596   18.4258   31.7860 H       1  lig         0.0555
     22 H22        19.9474   20.5250   32.8382 H       1  lig         0.0551
     23 H23        18.5020   19.7735   36.2925 H       1  lig         0.0433
     24 H24        17.3445   18.6673   35.6024 H       1  lig         0.0424
     25 H25        19.0525   18.2446   35.6106 H       1  lig         0.0357
     26 H26        16.2839   22.1622   34.7190 H       1  lig         0.4072
     27 C1         17.4518   22.1219   31.6089 C.1     1  lig        -0.1335
     28 C2         17.6875   21.7296   32.8005 C.1     1  lig        -0.1688
     29 C3         23.7817   16.5397   31.4658 C.2     1  lig        -0.2674
     30 C4         22.8090   17.1613   32.3200 C.2     1  lig        -0.0292
     31 C5         23.3107   15.3143   30.7673 C.2     1  lig         0.5673
     32 C6         23.3521   18.3744   33.1133 C.3     1  lig        -0.0559
     33 C7         21.9598   14.6921   31.0897 C.3     1  lig        -0.1823
     34 C8         22.3552   19.5523   33.2987 C.3     1  lig        -0.0728
     35 C9         20.9247   15.8143   31.4378 C.3     1  lig        -0.0705
     36 C10        20.2610   21.3700   34.6245 C.3     1  lig        -0.0740
     37 C11        19.0348   17.5631   32.8027 C.3     1  lig        -0.0723
     38 C12        18.8863   22.0243   34.8893 C.3     1  lig        -0.0690
     39 C13        18.0949   18.7863   32.9759 C.3     1  lig        -0.0643
     40 C14        21.4449   16.8496   32.4815 C.3     1  lig        -0.0353
     41 C15        20.9008   19.0597   33.5577 C.3     1  lig        -0.0466
     42 C16        20.5408   17.9368   32.7660 C.3     1  lig        -0.0538
     43 C17        19.9602   20.1011   33.8467 C.3     1  lig        -0.0659
     44 C18        17.8431   21.1540   34.1690 C.3     1  lig         0.2372
     45 C19        18.4932   19.7771   34.0869 C.3     1  lig        -0.0680
     46 C20        18.3521   19.0715   35.4859 C.3     1  lig        -0.0802
     47 O1         24.0724   14.8208   30.0084 O.2     1  lig        -0.5348
     48 O2         16.5671   21.2306   34.8128 O.3     1  lig        -0.5805
@<TRIPOS>BOND
     1    31    47    2
     2    31    33    1
     3    29    31    1
     4    33    35    1
     5     5    33    1
     6     6    33    1
     7    29    30    2
     8     2    29    1
     9    30    32    1
    10    30    40    1
    11    32    34    1
    12     3    32    1
    13     4    32    1
    14    35    40    1
    15    40    42    1
    16    19    40    1
    17     9    35    1
    18    10    35    1
    19    41    42    1
    20    37    42    1
    21    21    42    1
    22    34    41    1
    23    41    43    1
    24    20    41    1
    25     7    34    1
    26     8    34    1
    27    37    39    1
    28    13    37    1
    29    14    37    1
    30    39    45    1
    31    17    39    1
    32    18    39    1
    33    43    45    1
    34    45    46    1
    35    44    45    1
    36    36    43    1
    37    22    43    1
    38    23    46    1
    39    24    46    1
    40    25    46    1
    41    44    48    1
    42    38    44    1
    43    28    44    1
    44    26    48    1
    45    36    38    1
    46    15    38    1
    47    16    38    1
    48    11    36    1
    49    12    36    1
    50    27    28    3
    51     1    27    1
@<TRIPOS>SUBSTRUCTURE
     1 lig         1 TEMP              0 ****  ****    0 ROOT


########## Name:		ligand
########## HA_RMSDs:		17.9006
########## HA_RMSDh:		17.9006
########## HA_RMSDm:		14.8003
########## Cluster Size:	4
##########    Grid Score:          -15.939991
##########      Grid_vdw:          -15.175398
##########       Grid_es:           -0.764593
##########    Int_energy:            3.013487

@<TRIPOS>MOLECULE
ligand
 48 51 1 0 0
SMALL
No Charge or Current Charge


@<TRIPOS>ATOM
      1 H1         32.1838   15.2786   32.3630 H       1  lig         0.1670
      2 H2         36.8713   12.0664   24.6491 H       1  lig         0.1473
      3 H3         36.6770   11.1684   26.8231 H       1  lig         0.0559
      4 H4         35.5191    9.8855   26.5591 H       1  lig         0.0575
      5 H5         33.2981   12.0219   22.8870 H       1  lig         0.0688
      6 H6         33.3180   13.7815   22.7854 H       1  lig         0.0740
      7 H7         35.4417   12.0937   28.6209 H       1  lig         0.0477
      8 H8         35.3663   10.3547   28.8785 H       1  lig         0.0465
      9 H9         31.8865   12.8615   24.6456 H       1  lig         0.0495
     10 H10        33.1071   14.0078   25.2015 H       1  lig         0.0527
     11 H11        34.3482   11.0623   31.1167 H       1  lig         0.0459
     12 H12        33.5080    9.5992   30.5608 H       1  lig         0.0459
     13 H13        30.8981   11.5819   26.7806 H       1  lig         0.0438
     14 H14        31.2224   13.2874   26.6568 H       1  lig         0.0425
     15 H15        31.8475    9.8860   32.0656 H       1  lig         0.0681
     16 H16        32.6493   11.2349   32.7818 H       1  lig         0.0571
     17 H17        29.8816   12.7024   28.6741 H       1  lig         0.0423
     18 H18        31.3477   13.5852   28.9946 H       1  lig         0.0489
     19 H19        33.1045   11.0121   25.4336 H       1  lig         0.0634
     20 H20        33.1943   10.2724   27.9341 H       1  lig         0.0564
     21 H21        33.3910   13.0135   27.4198 H       1  lig         0.0555
     22 H22        33.2607   12.3756   29.7575 H       1  lig         0.0551
     23 H23        30.8610    9.4216   30.0761 H       1  lig         0.0433
     24 H24        29.6093   10.3083   29.2474 H       1  lig         0.0424
     25 H25        31.0312    9.7759   28.3582 H       1  lig         0.0357
     26 H26        29.7341   10.5762   31.5582 H       1  lig         0.4072
     27 C1         31.9130   14.3226   31.9706 C.1     1  lig        -0.1335
     28 C2         31.5959   13.1648   31.5366 C.1     1  lig        -0.1688
     29 C3         35.8001   12.2299   24.6586 C.2     1  lig        -0.2674
     30 C4         34.9071   11.7483   25.6748 C.2     1  lig        -0.0292
     31 C5         35.1392   12.9183   23.5182 C.2     1  lig         0.5673
     32 C6         35.6069   10.9477   26.7995 C.3     1  lig        -0.0559
     33 C7         33.6238   12.9381   23.3793 C.3     1  lig        -0.1823
     34 C8         35.0342   11.1622   28.2285 C.3     1  lig        -0.0728
     35 C9         32.9588   13.0030   24.7954 C.3     1  lig        -0.0705
     36 C10        33.3913   10.6590   30.7771 C.3     1  lig        -0.0740
     37 C11        31.4709   12.3982   27.2271 C.3     1  lig        -0.0723
     38 C12        32.2836   10.8573   31.8362 C.3     1  lig        -0.0690
     39 C13        30.9680   12.6122   28.6800 C.3     1  lig        -0.0643
     40 C14        33.5195   11.9538   25.8036 C.3     1  lig        -0.0353
     41 C15        33.4817   11.2837   28.2301 C.3     1  lig        -0.0466
     42 C16        32.9782   12.0389   27.1377 C.3     1  lig        -0.0538
     43 C17        32.8911   11.3708   29.5326 C.3     1  lig        -0.0659
     44 C18        31.2205   11.7619   31.1912 C.3     1  lig         0.2372
     45 C19        31.3864   11.5294   29.6933 C.3     1  lig        -0.0680
     46 C20        30.6902   10.1698   29.3166 C.3     1  lig        -0.0802
     47 O1         35.8580   13.3808   22.7002 O.2     1  lig        -0.5348
     48 O2         29.9235   11.5175   31.7449 O.3     1  lig        -0.5805
@<TRIPOS>BOND
     1    31    47    2
     2    31    33    1
     3    29    31    1
     4    33    35    1
     5     5    33    1
     6     6    33    1
     7    29    30    2
     8     2    29    1
     9    30    32    1
    10    30    40    1
    11    32    34    1
    12     3    32    1
    13     4    32    1
    14    35    40    1
    15    40    42    1
    16    19    40    1
    17     9    35    1
    18    10    35    1
    19    41    42    1
    20    37    42    1
    21    21    42    1
    22    34    41    1
    23    41    43    1
    24    20    41    1
    25     7    34    1
    26     8    34    1
    27    37    39    1
    28    13    37    1
    29    14    37    1
    30    39    45    1
    31    17    39    1
    32    18    39    1
    33    43    45    1
    34    45    46    1
    35    44    45    1
    36    36    43    1
    37    22    43    1
    38    23    46    1
    39    24    46    1
    40    25    46    1
    41    44    48    1
    42    38    44    1
    43    28    44    1
    44    26    48    1
    45    36    38    1
    46    15    38    1
    47    16    38    1
    48    11    36    1
    49    12    36    1
    50    27    28    3
    51     1    27    1
@<TRIPOS>SUBSTRUCTURE
     1 lig         1 TEMP              0 ****  ****    0 ROOT


########## Name:		ligand
########## HA_RMSDs:		17.7673
########## HA_RMSDh:		17.6842
########## HA_RMSDm:		14.2299
########## Cluster Size:	3
##########    Grid Score:          -15.875051
##########      Grid_vdw:          -13.285761
##########       Grid_es:           -2.589291
##########    Int_energy:            3.012979

@<TRIPOS>MOLECULE
ligand
 48 51 1 0 0
SMALL
No Charge or Current Charge


@<TRIPOS>ATOM
      1 H1          9.1519   21.4431   11.6659 H       1  lig         0.1670
      2 H2          7.4539   16.5375    3.6107 H       1  lig         0.1473
      3 H3          5.9775   17.3579    5.2592 H       1  lig         0.0559
      4 H4          5.3143   18.7609    4.4543 H       1  lig         0.0575
      5 H5          9.1820   19.6088    1.7516 H       1  lig         0.0688
      6 H6         10.7605   19.0821    2.3327 H       1  lig         0.0740
      7 H7          6.5748   18.5861    7.1954 H       1  lig         0.0477
      8 H8          4.9787   19.1874    6.7627 H       1  lig         0.0465
      9 H9          9.7746   21.0203    3.6082 H       1  lig         0.0495
     10 H10        10.1965   19.6480    4.6337 H       1  lig         0.0527
     11 H11         5.1622   20.3495    9.0348 H       1  lig         0.0459
     12 H12         4.3376   21.4510    7.9111 H       1  lig         0.0459
     13 H13         8.2333   22.6895    5.0263 H       1  lig         0.0438
     14 H14         9.6730   21.8864    5.5847 H       1  lig         0.0425
     15 H15         4.6115   23.2061    9.3069 H       1  lig         0.0681
     16 H16         5.2927   22.2013   10.5324 H       1  lig         0.0571
     17 H17         8.8987   23.6739    7.1387 H       1  lig         0.0423
     18 H18         9.0897   22.1014    7.8614 H       1  lig         0.0489
     19 H19         7.4785   20.5259    3.7009 H       1  lig         0.0634
     20 H20         5.9368   21.0921    5.7283 H       1  lig         0.0564
     21 H21         8.4647   20.0517    6.3154 H       1  lig         0.0555
     22 H22         7.1403   20.7684    8.2182 H       1  lig         0.0551
     23 H23         5.2078   23.9124    7.2351 H       1  lig         0.0433
     24 H24         6.6807   24.6994    6.7344 H       1  lig         0.0424
     25 H25         6.0561   23.3475    5.7975 H       1  lig         0.0357
     26 H26         6.0744   24.9168    8.9814 H       1  lig         0.4072
     27 C1          8.5319   21.8935   10.9216 C.1     1  lig        -0.1335
     28 C2          7.7636   22.4366   10.0589 C.1     1  lig        -0.1688
     29 C3          7.9426   17.5048    3.6168 C.2     1  lig        -0.2674
     30 C4          7.4585   18.6626    4.3148 C.2     1  lig        -0.0292
     31 C5          9.1563   17.7339    2.7887 C.2     1  lig         0.5673
     32 C6          6.1388   18.4251    5.0879 C.3     1  lig        -0.0559
     33 C7          9.7138   19.1339    2.5759 C.3     1  lig        -0.1823
     34 C8          6.0217   19.1603    6.4523 C.3     1  lig        -0.0728
     35 C9          9.4993   19.9955    3.8657 C.3     1  lig        -0.0705
     36 C10         5.2347   21.3045    8.5090 C.3     1  lig        -0.0740
     37 C11         8.6126   22.0011    5.7852 C.3     1  lig        -0.0723
     38 C12         5.4045   22.4832    9.4938 C.3     1  lig        -0.0690
     39 C13         8.4643   22.6746    7.1759 C.3     1  lig        -0.0643
     40 C14         8.0459   19.9379    4.4277 C.3     1  lig        -0.0353
     41 C15         6.6325   20.5920    6.4058 C.3     1  lig        -0.0466
     42 C16         7.8373   20.6625    5.6571 C.3     1  lig        -0.0538
     43 C17         6.4526   21.3570    7.6038 C.3     1  lig        -0.0659
     44 C18         6.7686   23.1201    9.1807 C.3     1  lig         0.2372
     45 C19         7.0256   22.7616    7.7210 C.3     1  lig        -0.0680
     46 C20         6.1838   23.7302    6.8109 C.3     1  lig        -0.0802
     47 O1          9.6118   16.7811    2.2555 O.2     1  lig        -0.5348
     48 O2          6.7840   24.5108    9.5186 O.3     1  lig        -0.5805
@<TRIPOS>BOND
     1    31    47    2
     2    31    33    1
     3    29    31    1
     4    33    35    1
     5     5    33    1
     6     6    33    1
     7    29    30    2
     8     2    29    1
     9    30    32    1
    10    30    40    1
    11    32    34    1
    12     3    32    1
    13     4    32    1
    14    35    40    1
    15    40    42    1
    16    19    40    1
    17     9    35    1
    18    10    35    1
    19    41    42    1
    20    37    42    1
    21    21    42    1
    22    34    41    1
    23    41    43    1
    24    20    41    1
    25     7    34    1
    26     8    34    1
    27    37    39    1
    28    13    37    1
    29    14    37    1
    30    39    45    1
    31    17    39    1
    32    18    39    1
    33    43    45    1
    34    45    46    1
    35    44    45    1
    36    36    43    1
    37    22    43    1
    38    23    46    1
    39    24    46    1
    40    25    46    1
    41    44    48    1
    42    38    44    1
    43    28    44    1
    44    26    48    1
    45    36    38    1
    46    15    38    1
    47    16    38    1
    48    11    36    1
    49    12    36    1
    50    27    28    3
    51     1    27    1
@<TRIPOS>SUBSTRUCTURE
     1 lig         1 TEMP              0 ****  ****    0 ROOT


########## Name:		ligand
########## HA_RMSDs:		16.5329
########## HA_RMSDh:		16.5301
########## HA_RMSDm:		13.2387
########## Cluster Size:	1
##########    Grid Score:          -15.845654
##########      Grid_vdw:          -15.849513
##########       Grid_es:            0.003860
##########    Int_energy:            3.011361

@<TRIPOS>MOLECULE
ligand
 48 51 1 0 0
SMALL
No Charge or Current Charge


@<TRIPOS>ATOM
      1 H1          7.4497   22.5128   13.8093 H       1  lig         0.1670
      2 H2         11.2639   21.8333    5.0374 H       1  lig         0.1473
      3 H3          9.9497   20.3095    6.2708 H       1  lig         0.0559
      4 H4          8.3933   20.4988    5.4975 H       1  lig         0.0575
      5 H5          9.0839   25.0587    4.1886 H       1  lig         0.0688
      6 H6         10.1837   26.0600    5.1343 H       1  lig         0.0740
      7 H7          9.0621   20.6542    8.4405 H       1  lig         0.0477
      8 H8          7.8880   19.6167    7.6398 H       1  lig         0.0465
      9 H9          8.0249   25.4914    6.3056 H       1  lig         0.0495
     10 H10         9.4615   25.0313    7.2208 H       1  lig         0.0527
     11 H11         6.9041   19.4673    9.9970 H       1  lig         0.0459
     12 H12         5.5612   19.5086    8.8349 H       1  lig         0.0459
     13 H13         5.9010   24.2935    7.4132 H       1  lig         0.0438
     14 H14         7.2019   25.0805    8.2604 H       1  lig         0.0425
     15 H15         4.0586   19.9359   10.4669 H       1  lig         0.0681
     16 H16         5.2579   19.7717   11.6958 H       1  lig         0.0571
     17 H17         5.2660   24.5523    9.7378 H       1  lig         0.0423
     18 H18         6.7958   23.9152   10.2721 H       1  lig         0.0489
     19 H19         7.5952   23.2746    5.6527 H       1  lig         0.0634
     20 H20         6.4930   21.4794    7.1923 H       1  lig         0.0564
     21 H21         8.4332   23.1222    8.3558 H       1  lig         0.0555
     22 H22         7.2753   21.6118    9.8612 H       1  lig         0.0551
     23 H23         3.6215   21.3813    8.7737 H       1  lig         0.0433
     24 H24         3.4605   23.1161    8.8365 H       1  lig         0.0424
     25 H25         4.4592   22.3807    7.5885 H       1  lig         0.0357
     26 H26         3.6133   21.8114   12.3528 H       1  lig         0.4072
     27 C1          6.7924   22.3702   12.9792 C.1     1  lig        -0.1335
     28 C2          5.9913   22.1697   12.0059 C.1     1  lig        -0.1688
     29 C3         10.5604   22.6099    5.3137 C.2     1  lig        -0.2674
     30 C4          9.3109   22.3825    5.9838 C.2     1  lig        -0.0292
     31 C5         10.8114   24.0210    4.9172 C.2     1  lig         0.5673
     32 C6          9.0262   20.8934    6.2959 C.3     1  lig        -0.0559
     33 C7          9.7336   25.0855    5.0633 C.3     1  lig        -0.1823
     34 C8          8.3133   20.6186    7.6495 C.3     1  lig        -0.0728
     35 C9          8.8659   24.7955    6.3341 C.3     1  lig        -0.0705
     36 C10         6.0472   20.0469    9.6458 C.3     1  lig        -0.0740
     37 C11         6.6882   24.1305    8.1530 C.3     1  lig        -0.0723
     38 C12         5.0330   20.3064   10.7825 C.3     1  lig        -0.0690
     39 C13         6.0202   23.7976    9.5141 C.3     1  lig        -0.0643
     40 C14         8.3621   23.3229    6.4306 C.3     1  lig        -0.0353
     41 C15         7.2281   21.6876    7.9729 C.3     1  lig        -0.0466
     42 C16         7.6226   23.0078    7.6281 C.3     1  lig        -0.0538
     43 C17         6.4622   21.4223    9.1543 C.3     1  lig        -0.0659
     44 C18         4.9699   21.8311   10.9712 C.3     1  lig         0.2372
     45 C19         5.3887   22.3958    9.6180 C.3     1  lig        -0.0680
     46 C20         4.1633   22.3050    8.6356 C.3     1  lig        -0.0802
     47 O1         11.8621   24.2448    4.4216 O.2     1  lig        -0.5348
     48 O2          3.6956   22.2410   11.4778 O.3     1  lig        -0.5805
@<TRIPOS>BOND
     1    31    47    2
     2    31    33    1
     3    29    31    1
     4    33    35    1
     5     5    33    1
     6     6    33    1
     7    29    30    2
     8     2    29    1
     9    30    32    1
    10    30    40    1
    11    32    34    1
    12     3    32    1
    13     4    32    1
    14    35    40    1
    15    40    42    1
    16    19    40    1
    17     9    35    1
    18    10    35    1
    19    41    42    1
    20    37    42    1
    21    21    42    1
    22    34    41    1
    23    41    43    1
    24    20    41    1
    25     7    34    1
    26     8    34    1
    27    37    39    1
    28    13    37    1
    29    14    37    1
    30    39    45    1
    31    17    39    1
    32    18    39    1
    33    43    45    1
    34    45    46    1
    35    44    45    1
    36    36    43    1
    37    22    43    1
    38    23    46    1
    39    24    46    1
    40    25    46    1
    41    44    48    1
    42    38    44    1
    43    28    44    1
    44    26    48    1
    45    36    38    1
    46    15    38    1
    47    16    38    1
    48    11    36    1
    49    12    36    1
    50    27    28    3
    51     1    27    1
@<TRIPOS>SUBSTRUCTURE
     1 lig         1 TEMP              0 ****  ****    0 ROOT


########## Name:		ligand
########## HA_RMSDs:		15.8294
########## HA_RMSDh:		15.3537
########## HA_RMSDm:		9.8406
########## Cluster Size:	4
##########    Grid Score:          -15.716864
##########      Grid_vdw:          -15.811049
##########       Grid_es:            0.094185
##########    Int_energy:            3.185342

@<TRIPOS>MOLECULE
ligand
 48 51 1 0 0
SMALL
No Charge or Current Charge


@<TRIPOS>ATOM
      1 H1         11.2314   24.3211   33.8312 H       1  lig         0.1670
      2 H2         14.5727   15.5110   33.5317 H       1  lig         0.1473
      3 H3         14.1544   16.9755   31.7287 H       1  lig         0.0559
      4 H4         15.7694   17.5377   31.3653 H       1  lig         0.0575
      5 H5         17.4409   17.0471   35.8315 H       1  lig         0.0688
      6 H6         16.3121   17.1537   37.1810 H       1  lig         0.0740
      7 H7         13.2795   19.1726   31.8763 H       1  lig         0.0477
      8 H8         14.3442   19.2115   30.4759 H       1  lig         0.0465
      9 H9         16.7384   19.3421   36.0042 H       1  lig         0.0495
     10 H10        15.0300   18.9080   36.0802 H       1  lig         0.0527
     11 H11        13.2698   21.5084   30.1350 H       1  lig         0.0459
     12 H12        14.9835   21.6226   29.6811 H       1  lig         0.0459
     13 H13        17.0230   21.3377   34.2409 H       1  lig         0.0438
     14 H14        15.7771   21.1951   35.4479 H       1  lig         0.0425
     15 H15        14.9141   23.8807   29.6809 H       1  lig         0.0681
     16 H16        13.2144   23.8875   29.9754 H       1  lig         0.0571
     17 H17        15.8508   23.4533   34.3968 H       1  lig         0.0423
     18 H18        14.3063   22.6534   34.3166 H       1  lig         0.0489
     19 H19        16.9044   18.7415   33.7378 H       1  lig         0.0634
     20 H20        16.0591   20.2217   31.7623 H       1  lig         0.0564
     21 H21        14.3946   20.0315   34.0007 H       1  lig         0.0555
     22 H22        13.6843   21.5821   32.2745 H       1  lig         0.0551
     23 H23        16.7814   23.2789   30.8202 H       1  lig         0.0433
     24 H24        17.2948   23.7757   32.4105 H       1  lig         0.0424
     25 H25        17.3393   22.0713   31.9760 H       1  lig         0.0357
     26 H26        15.7883   25.2444   31.1720 H       1  lig         0.4072
     27 C1         12.0923   24.2002   33.2102 C.1     1  lig        -0.1335
     28 C2         13.1416   24.0755   32.4941 C.1     1  lig        -0.1688
     29 C3         15.0378   16.3402   34.0518 C.2     1  lig        -0.2674
     30 C4         15.3167   17.6214   33.4664 C.2     1  lig        -0.0292
     31 C5         15.5247   16.1688   35.4464 C.2     1  lig         0.5673
     32 C6         14.8914   17.7414   31.9830 C.3     1  lig        -0.0559
     33 C7         16.4017   17.2200   36.1109 C.3     1  lig        -0.1823
     34 C8         14.3216   19.1244   31.5607 C.3     1  lig        -0.0728
     35 C9         15.9878   18.6482   35.6201 C.3     1  lig        -0.0705
     36 C10        14.2300   21.9640   30.3878 C.3     1  lig        -0.0740
     37 C11        15.9405   21.2845   34.3787 C.3     1  lig        -0.0723
     38 C12        14.1506   23.5071   30.3620 C.3     1  lig        -0.0690
     39 C13        15.3208   22.6305   33.9164 C.3     1  lig        -0.0643
     40 C14        15.8632   18.7705   34.0706 C.3     1  lig        -0.0353
     41 C15        15.0785   20.3059   32.2361 C.3     1  lig        -0.0466
     42 C16        15.4113   20.0545   33.5937 C.3     1  lig        -0.0538
     43 C17        14.6683   21.6066   31.7970 C.3     1  lig        -0.0659
     44 C18        14.4557   23.9835   31.7918 C.3     1  lig         0.2372
     45 C19        15.2928   22.8596   32.3929 C.3     1  lig        -0.0680
     46 C20        16.7674   22.9931   31.8613 C.3     1  lig        -0.0802
     47 O1         15.2504   15.1454   35.9729 O.2     1  lig        -0.5348
     48 O2         15.0334   25.2930   31.7923 O.3     1  lig        -0.5805
@<TRIPOS>BOND
     1    31    47    2
     2    31    33    1
     3    29    31    1
     4    33    35    1
     5     5    33    1
     6     6    33    1
     7    29    30    2
     8     2    29    1
     9    30    32    1
    10    30    40    1
    11    32    34    1
    12     3    32    1
    13     4    32    1
    14    35    40    1
    15    40    42    1
    16    19    40    1
    17     9    35    1
    18    10    35    1
    19    41    42    1
    20    37    42    1
    21    21    42    1
    22    34    41    1
    23    41    43    1
    24    20    41    1
    25     7    34    1
    26     8    34    1
    27    37    39    1
    28    13    37    1
    29    14    37    1
    30    39    45    1
    31    17    39    1
    32    18    39    1
    33    43    45    1
    34    45    46    1
    35    44    45    1
    36    36    43    1
    37    22    43    1
    38    23    46    1
    39    24    46    1
    40    25    46    1
    41    44    48    1
    42    38    44    1
    43    28    44    1
    44    26    48    1
    45    36    38    1
    46    15    38    1
    47    16    38    1
    48    11    36    1
    49    12    36    1
    50    27    28    3
    51     1    27    1
@<TRIPOS>SUBSTRUCTURE
     1 lig         1 TEMP              0 ****  ****    0 ROOT


########## Name:		ligand
########## HA_RMSDs:		15.5826
########## HA_RMSDh:		15.3650
########## HA_RMSDm:		10.1543
########## Cluster Size:	2
##########    Grid Score:          -15.692770
##########      Grid_vdw:          -15.127773
##########       Grid_es:           -0.564997
##########    Int_energy:            3.239222

@<TRIPOS>MOLECULE
ligand
 48 51 1 0 0
SMALL
No Charge or Current Charge


@<TRIPOS>ATOM
      1 H1         14.4192   16.9319   36.3005 H       1  lig         0.1670
      2 H2         23.3604   17.3705   34.4714 H       1  lig         0.1473
      3 H3         21.5707   16.6423   33.1162 H       1  lig         0.0559
      4 H4         21.3904   18.0012   32.0313 H       1  lig         0.0575
      5 H5         22.9952   21.2820   35.1367 H       1  lig         0.0688
      6 H6         22.8187   20.9793   36.8641 H       1  lig         0.0740
      7 H7         19.2751   16.6361   33.7031 H       1  lig         0.0477
      8 H8         19.2883   16.9057   31.9644 H       1  lig         0.0465
      9 H9         20.6543   21.4613   35.6646 H       1  lig         0.0495
     10 H10        20.6429   19.9320   36.5444 H       1  lig         0.0527
     11 H11        16.7689   16.5406   32.2205 H       1  lig         0.0459
     12 H12        17.0267   17.8066   31.0014 H       1  lig         0.0459
     13 H13        18.5444   21.5005   34.0155 H       1  lig         0.0438
     14 H14        18.5530   20.9599   35.6700 H       1  lig         0.0425
     15 H15        14.8557   18.4275   31.0729 H       1  lig         0.0681
     16 H16        14.4608   17.1373   32.1477 H       1  lig         0.0571
     17 H17        16.2517   21.2241   34.7513 H       1  lig         0.0423
     18 H18        16.6062   19.6515   35.4091 H       1  lig         0.0489
     19 H19        20.9098   20.3918   33.5871 H       1  lig         0.0634
     20 H20        18.9683   19.2317   32.2860 H       1  lig         0.0564
     21 H21        19.0788   18.7936   35.0451 H       1  lig         0.0555
     22 H22        17.1444   17.8811   33.8989 H       1  lig         0.0551
     23 H23        16.0885   20.3297   31.1649 H       1  lig         0.0433
     24 H24        15.9987   21.6314   32.3213 H       1  lig         0.0424
     25 H25        17.5664   20.9589   31.8899 H       1  lig         0.0357
     26 H26        14.0567   20.3081   32.0162 H       1  lig         0.4072
     27 C1         14.5138   17.5502   35.4344 C.1     1  lig        -0.1335
     28 C2         14.6627   18.2754   34.3946 C.1     1  lig        -0.1688
     29 C3         22.7714   18.2461   34.7183 C.2     1  lig        -0.2674
     30 C4         21.5282   18.5998   34.0927 C.2     1  lig        -0.0292
     31 C5         23.2809   19.2356   35.7044 C.2     1  lig         0.5673
     32 C6         21.0694   17.6062   32.9982 C.3     1  lig        -0.0559
     33 C7         22.6085   20.5890   35.8838 C.3     1  lig        -0.1823
     34 C8         19.5377   17.3526   32.9251 C.3     1  lig        -0.0728
     35 C9         21.0628   20.4487   35.6765 C.3     1  lig        -0.0705
     36 C10        16.6204   17.5979   31.9888 C.3     1  lig        -0.0740
     37 C11        18.3399   20.6388   34.6555 C.3     1  lig        -0.0723
     38 C12        15.1246   17.9836   32.0306 C.3     1  lig        -0.0690
     39 C13        16.8243   20.3141   34.5706 C.3     1  lig        -0.0643
     40 C14        20.6683   19.6780   34.3796 C.3     1  lig        -0.0353
     41 C15        18.7121   18.6494   33.1739 C.3     1  lig        -0.0466
     42 C16        19.2526   19.4688   34.2003 C.3     1  lig        -0.0538
     43 C17        17.2971   18.4972   33.0079 C.3     1  lig        -0.0659
     44 C18        14.9754   19.0315   33.1460 C.3     1  lig         0.2372
     45 C19        16.3569   19.6683   33.2519 C.3     1  lig        -0.0680
     46 C20        16.5227   20.7044   32.0797 C.3     1  lig        -0.0802
     47 O1         24.2701   18.9365   36.2805 O.2     1  lig        -0.5348
     48 O2         13.8748   19.9103   32.8912 O.3     1  lig        -0.5805
@<TRIPOS>BOND
     1    31    47    2
     2    31    33    1
     3    29    31    1
     4    33    35    1
     5     5    33    1
     6     6    33    1
     7    29    30    2
     8     2    29    1
     9    30    32    1
    10    30    40    1
    11    32    34    1
    12     3    32    1
    13     4    32    1
    14    35    40    1
    15    40    42    1
    16    19    40    1
    17     9    35    1
    18    10    35    1
    19    41    42    1
    20    37    42    1
    21    21    42    1
    22    34    41    1
    23    41    43    1
    24    20    41    1
    25     7    34    1
    26     8    34    1
    27    37    39    1
    28    13    37    1
    29    14    37    1
    30    39    45    1
    31    17    39    1
    32    18    39    1
    33    43    45    1
    34    45    46    1
    35    44    45    1
    36    36    43    1
    37    22    43    1
    38    23    46    1
    39    24    46    1
    40    25    46    1
    41    44    48    1
    42    38    44    1
    43    28    44    1
    44    26    48    1
    45    36    38    1
    46    15    38    1
    47    16    38    1
    48    11    36    1
    49    12    36    1
    50    27    28    3
    51     1    27    1
@<TRIPOS>SUBSTRUCTURE
     1 lig         1 TEMP              0 ****  ****    0 ROOT


########## Name:		ligand
########## HA_RMSDs:		17.8656
########## HA_RMSDh:		17.4569
########## HA_RMSDm:		14.1800
########## Cluster Size:	3
##########    Grid Score:          -15.611665
##########      Grid_vdw:          -15.230518
##########       Grid_es:           -0.381146
##########    Int_energy:            3.013016

@<TRIPOS>MOLECULE
ligand
 48 51 1 0 0
SMALL
No Charge or Current Charge


@<TRIPOS>ATOM
      1 H1          7.2607   21.6379    5.6758 H       1  lig         0.1670
      2 H2          3.1455   24.7377   13.7559 H       1  lig         0.1473
      3 H3          2.2189   23.6906   11.8545 H       1  lig         0.0559
      4 H4          1.9775   22.0632   12.4459 H       1  lig         0.0575
      5 H5          5.5833   22.1840   15.6029 H       1  lig         0.0688
      6 H6          6.9493   23.2549   15.2966 H       1  lig         0.0740
      7 H7          3.4016   22.9600    9.9357 H       1  lig         0.0477
      8 H8          2.0603   21.8312   10.0874 H       1  lig         0.0465
      9 H9          6.8139   21.2702   13.7479 H       1  lig         0.0495
     10 H10         6.8640   22.8176   12.9019 H       1  lig         0.0527
     11 H11         2.8706   21.0701    7.7829 H       1  lig         0.0459
     12 H12         2.3422   19.6362    8.6887 H       1  lig         0.0459
     13 H13         6.0845   19.3772   11.9994 H       1  lig         0.0438
     14 H14         7.2259   20.6605   11.7167 H       1  lig         0.0425
     15 H15         3.3384   18.2421    7.2163 H       1  lig         0.0681
     16 H16         3.7760   19.5515    6.1820 H       1  lig         0.0571
     17 H17         7.2690   18.9186    9.9352 H       1  lig         0.0423
     18 H18         7.0027   20.5439    9.3702 H       1  lig         0.0489
     19 H19         4.5096   21.0092   13.3646 H       1  lig         0.0634
     20 H20         3.4789   20.2252   11.0995 H       1  lig         0.0564
     21 H21         5.5629   22.0840   10.9630 H       1  lig         0.0555
     22 H22         4.7721   21.2135    8.8404 H       1  lig         0.0551
     23 H23         3.9038   17.5219    9.2919 H       1  lig         0.0433
     24 H24         5.4902   17.1951    9.9371 H       1  lig         0.0424
     25 H25         4.3509   18.1527   10.8755 H       1  lig         0.0357
     26 H26         5.2641   17.0642    7.6441 H       1  lig         0.4072
     27 C1          6.7486   20.9265    6.2867 C.1     1  lig        -0.1335
     28 C2          6.1155   20.0665    6.9859 C.1     1  lig        -0.1688
     29 C3          3.9265   23.9864   13.7460 C.2     1  lig        -0.2674
     30 C4          3.9367   22.8269   12.8989 C.2     1  lig        -0.0292
     31 C5          5.0479   24.0614   14.7196 C.2     1  lig         0.5673
     32 C6          2.7072   22.7191   11.9649 C.3     1  lig        -0.0559
     33 C7          6.0135   22.8995   14.9023 C.3     1  lig        -0.1823
     34 C8          2.9935   22.1541   10.5455 C.3     1  lig        -0.0728
     35 C9          6.2426   22.1755   13.5329 C.3     1  lig        -0.0705
     36 C10         3.1991   20.1332    8.2388 C.3     1  lig        -0.0740
     37 C11         6.2936   20.2365   11.3579 C.3     1  lig        -0.0723
     38 C12         3.8601   19.1981    7.2012 C.3     1  lig        -0.0690
     39 C13         6.5329   19.7225    9.9128 C.3     1  lig        -0.0643
     40 C14         4.9247   21.8306   12.7741 C.3     1  lig        -0.0353
     41 C15         4.0379   20.9994   10.5693 C.3     1  lig        -0.0466
     42 C16         5.1069   21.2300   11.4756 C.3     1  lig        -0.0538
     43 C17         4.2570   20.3663    9.3028 C.3     1  lig        -0.0659
     44 C18         5.3152   19.0000    7.6571 C.3     1  lig         0.2372
     45 C19         5.2752   19.2445    9.1617 C.3     1  lig        -0.0680
     46 C20         4.7100   17.9555    9.8645 C.3     1  lig        -0.0802
     47 O1          5.0975   25.0390   15.3843 O.2     1  lig        -0.5348
     48 O2          5.8311   17.7387    7.2193 O.3     1  lig        -0.5805
@<TRIPOS>BOND
     1    31    47    2
     2    31    33    1
     3    29    31    1
     4    33    35    1
     5     5    33    1
     6     6    33    1
     7    29    30    2
     8     2    29    1
     9    30    32    1
    10    30    40    1
    11    32    34    1
    12     3    32    1
    13     4    32    1
    14    35    40    1
    15    40    42    1
    16    19    40    1
    17     9    35    1
    18    10    35    1
    19    41    42    1
    20    37    42    1
    21    21    42    1
    22    34    41    1
    23    41    43    1
    24    20    41    1
    25     7    34    1
    26     8    34    1
    27    37    39    1
    28    13    37    1
    29    14    37    1
    30    39    45    1
    31    17    39    1
    32    18    39    1
    33    43    45    1
    34    45    46    1
    35    44    45    1
    36    36    43    1
    37    22    43    1
    38    23    46    1
    39    24    46    1
    40    25    46    1
    41    44    48    1
    42    38    44    1
    43    28    44    1
    44    26    48    1
    45    36    38    1
    46    15    38    1
    47    16    38    1
    48    11    36    1
    49    12    36    1
    50    27    28    3
    51     1    27    1
@<TRIPOS>SUBSTRUCTURE
     1 lig         1 TEMP              0 ****  ****    0 ROOT


########## Name:		ligand
########## HA_RMSDs:		17.8703
########## HA_RMSDh:		17.6625
########## HA_RMSDm:		13.9003
########## Cluster Size:	1
##########    Grid Score:          -15.489109
##########      Grid_vdw:          -14.416115
##########       Grid_es:           -1.072994
##########    Int_energy:            3.293958

@<TRIPOS>MOLECULE
ligand
 48 51 1 0 0
SMALL
No Charge or Current Charge


@<TRIPOS>ATOM
      1 H1         29.3581   11.4382   27.3907 H       1  lig         0.1670
      2 H2         30.3469   17.8424   33.7855 H       1  lig         0.1473
      3 H3         31.4984   15.7985   33.5276 H       1  lig         0.0559
      4 H4         33.0281   16.3485   32.8842 H       1  lig         0.0575
      5 H5         31.2470   20.2489   30.7402 H       1  lig         0.0688
      6 H6         29.5600   20.2459   30.2295 H       1  lig         0.0740
      7 H7         31.1849   14.2180   31.7903 H       1  lig         0.0477
      8 H8         32.8861   14.0773   32.2172 H       1  lig         0.0465
      9 H9         31.0624   18.7450   28.8708 H       1  lig         0.0495
     10 H10        29.6763   17.9046   29.5677 H       1  lig         0.0527
     11 H11        32.7639   12.0363   30.6791 H       1  lig         0.0459
     12 H12        34.3384   12.8224   30.4368 H       1  lig         0.0459
     13 H13        32.8059   16.9110   27.9938 H       1  lig         0.0438
     14 H14        31.0779   16.8752   27.7887 H       1  lig         0.0425
     15 H15        34.7236   11.6455   28.5472 H       1  lig         0.0681
     16 H16        33.2866   10.7159   28.7628 H       1  lig         0.0571
     17 H17        32.2531   15.1844   26.3853 H       1  lig         0.0423
     18 H18        31.0186   14.5430   27.4323 H       1  lig         0.0489
     19 H19        32.5459   17.8457   30.4568 H       1  lig         0.0634
     20 H20        33.4997   15.4190   30.3625 H       1  lig         0.0564
     21 H21        30.7831   15.7320   29.7802 H       1  lig         0.0555
     22 H22        31.6871   13.5009   29.4748 H       1  lig         0.0551
     23 H23        35.2338   13.8087   28.0918 H       1  lig         0.0433
     24 H24        34.6693   14.8082   26.7796 H       1  lig         0.0424
     25 H25        34.6561   15.4406   28.4215 H       1  lig         0.0357
     26 H26        33.6376   11.2640   26.1737 H       1  lig         0.4072
     27 C1         30.3954   11.6936   27.3749 C.1     1  lig        -0.1335
     28 C2         31.6273   12.0277   27.3806 C.1     1  lig        -0.1688
     29 C3         30.5088   18.0268   32.7300 C.2     1  lig        -0.2674
     30 C4         31.3424   17.2267   31.8772 C.2     1  lig        -0.0292
     31 C5         29.9236   19.2312   32.0834 C.2     1  lig         0.5673
     32 C6         32.0209   16.0365   32.5976 C.3     1  lig        -0.0559
     33 C7         30.3363   19.6532   30.6807 C.3     1  lig        -0.1823
     34 C8         32.1454   14.7321   31.7616 C.3     1  lig        -0.0728
     35 C9         30.6285   18.3872   29.8068 C.3     1  lig        -0.0705
     36 C10        33.3911   12.5730   29.9634 C.3     1  lig        -0.0740
     37 C11        31.9120   16.3190   28.2042 C.3     1  lig        -0.0723
     38 C12        33.6475   11.7333   28.6917 C.3     1  lig        -0.0690
     39 C13        32.0189   14.9779   27.4299 C.3     1  lig        -0.0643
     40 C14        31.5710   17.3516   30.4929 C.3     1  lig        -0.0353
     41 C15        32.4881   15.0176   30.2696 C.3     1  lig        -0.0466
     42 C16        31.7984   16.1415   29.7420 C.3     1  lig        -0.0538
     43 C17        32.7247   13.8477   29.4770 C.3     1  lig        -0.0659
     44 C18        33.0310   12.5161   27.5205 C.3     1  lig         0.2372
     45 C19        33.0359   13.9661   27.9924 C.3     1  lig        -0.0680
     46 C20        34.4896   14.5436   27.8236 C.3     1  lig        -0.0802
     47 O1         29.1816   19.8711   32.7466 O.2     1  lig        -0.5348
     48 O2         33.7071   12.2326   26.2913 O.3     1  lig        -0.5805
@<TRIPOS>BOND
     1    31    47    2
     2    31    33    1
     3    29    31    1
     4    33    35    1
     5     5    33    1
     6     6    33    1
     7    29    30    2
     8     2    29    1
     9    30    32    1
    10    30    40    1
    11    32    34    1
    12     3    32    1
    13     4    32    1
    14    35    40    1
    15    40    42    1
    16    19    40    1
    17     9    35    1
    18    10    35    1
    19    41    42    1
    20    37    42    1
    21    21    42    1
    22    34    41    1
    23    41    43    1
    24    20    41    1
    25     7    34    1
    26     8    34    1
    27    37    39    1
    28    13    37    1
    29    14    37    1
    30    39    45    1
    31    17    39    1
    32    18    39    1
    33    43    45    1
    34    45    46    1
    35    44    45    1
    36    36    43    1
    37    22    43    1
    38    23    46    1
    39    24    46    1
    40    25    46    1
    41    44    48    1
    42    38    44    1
    43    28    44    1
    44    26    48    1
    45    36    38    1
    46    15    38    1
    47    16    38    1
    48    11    36    1
    49    12    36    1
    50    27    28    3
    51     1    27    1
@<TRIPOS>SUBSTRUCTURE
     1 lig         1 TEMP              0 ****  ****    0 ROOT


########## Name:		ligand
########## HA_RMSDs:		17.4827
########## HA_RMSDh:		17.2296
########## HA_RMSDm:		11.5064
########## Cluster Size:	1
##########    Grid Score:          -15.342525
##########      Grid_vdw:          -15.418273
##########       Grid_es:            0.075747
##########    Int_energy:            3.009371

@<TRIPOS>MOLECULE
ligand
 48 51 1 0 0
SMALL
No Charge or Current Charge


@<TRIPOS>ATOM
      1 H1         26.3485   17.4381   29.6148 H       1  lig         0.1670
      2 H2         33.3758   11.4273   27.0446 H       1  lig         0.1473
      3 H3         33.1154   13.7433   26.6727 H       1  lig         0.0559
      4 H4         34.2155   14.4044   27.8597 H       1  lig         0.0575
      5 H5         33.7947   10.7646   30.9511 H       1  lig         0.0688
      6 H6         32.3072    9.8191   30.9578 H       1  lig         0.0740
      7 H7         31.3077   15.0898   27.4033 H       1  lig         0.0477
      8 H8         32.6971   16.1695   27.4101 H       1  lig         0.0465
      9 H9         32.0583   12.1592   31.8621 H       1  lig         0.0495
     10 H10        30.9483   11.7969   30.5394 H       1  lig         0.0527
     11 H11        30.9000   17.9447   27.8175 H       1  lig         0.0459
     12 H12        32.3346   18.3754   28.7727 H       1  lig         0.0459
     13 H13        32.0502   14.8065   32.2677 H       1  lig         0.0438
     14 H14        30.6584   13.8001   31.9859 H       1  lig         0.0425
     15 H15        31.1693   19.8803   29.9897 H       1  lig         0.0681
     16 H16        29.7544   19.6492   29.0304 H       1  lig         0.0571
     17 H17        30.0544   16.0896   32.7623 H       1  lig         0.0423
     18 H18        29.3160   15.6014   31.2629 H       1  lig         0.0489
     19 H19        33.4570   13.4496   30.4825 H       1  lig         0.0634
     20 H20        32.9405   15.9006   29.7520 H       1  lig         0.0564
     21 H21        30.8111   14.0897   29.6940 H       1  lig         0.0555
     22 H22        30.2544   16.4032   29.2182 H       1  lig         0.0551
     23 H23        32.3859   18.6478   31.4552 H       1  lig         0.0433
     24 H24        31.8433   17.7987   32.8780 H       1  lig         0.0424
     25 H25        32.9043   16.9866   31.7331 H       1  lig         0.0357
     26 H26        29.0429   19.9408   31.6050 H       1  lig         0.4072
     27 C1         27.3398   17.6303   29.9637 C.1     1  lig        -0.1335
     28 C2         28.5207   17.8966   30.3687 C.1     1  lig        -0.1688
     29 C3         33.0943   11.5968   28.0772 C.2     1  lig        -0.2674
     30 C4         32.9261   12.8900   28.6786 C.2     1  lig        -0.0292
     31 C5         32.9455   10.4478   29.0094 C.2     1  lig         0.5673
     32 C6         33.1852   14.0714   27.7128 C.3     1  lig        -0.0559
     33 C7         32.8036   10.6618   30.5095 C.3     1  lig        -0.1823
     34 C8         32.2551   15.3028   27.8983 C.3     1  lig        -0.0728
     35 C9         31.9986   11.9758   30.7874 C.3     1  lig        -0.0705
     36 C10        31.2921   18.0691   28.8296 C.3     1  lig        -0.0740
     37 C11        31.1988   14.6580   31.5992 C.3     1  lig        -0.0723
     38 C12        30.4827   19.1163   29.6272 C.3     1  lig        -0.0690
     39 C13        30.2665   15.8940   31.7110 C.3     1  lig        -0.0643
     40 C14        32.5123   13.2110   29.9862 C.3     1  lig        -0.0353
     41 C15        31.9536   15.5943   29.3980 C.3     1  lig        -0.0466
     42 C16        31.7436   14.4180   30.1657 C.3     1  lig        -0.0538
     43 C17        31.1919   16.7848   29.6333 C.3     1  lig        -0.0659
     44 C18        29.8619   18.3712   30.8205 C.3     1  lig         0.2372
     45 C19        30.7894   17.1820   31.0458 C.3     1  lig        -0.0680
     46 C20        32.0673   17.6812   31.8158 C.3     1  lig        -0.0802
     47 O1         33.0155    9.3705   28.5253 O.2     1  lig        -0.5348
     48 O2         29.6530   19.2493   31.9313 O.3     1  lig        -0.5805
@<TRIPOS>BOND
     1    31    47    2
     2    31    33    1
     3    29    31    1
     4    33    35    1
     5     5    33    1
     6     6    33    1
     7    29    30    2
     8     2    29    1
     9    30    32    1
    10    30    40    1
    11    32    34    1
    12     3    32    1
    13     4    32    1
    14    35    40    1
    15    40    42    1
    16    19    40    1
    17     9    35    1
    18    10    35    1
    19    41    42    1
    20    37    42    1
    21    21    42    1
    22    34    41    1
    23    41    43    1
    24    20    41    1
    25     7    34    1
    26     8    34    1
    27    37    39    1
    28    13    37    1
    29    14    37    1
    30    39    45    1
    31    17    39    1
    32    18    39    1
    33    43    45    1
    34    45    46    1
    35    44    45    1
    36    36    43    1
    37    22    43    1
    38    23    46    1
    39    24    46    1
    40    25    46    1
    41    44    48    1
    42    38    44    1
    43    28    44    1
    44    26    48    1
    45    36    38    1
    46    15    38    1
    47    16    38    1
    48    11    36    1
    49    12    36    1
    50    27    28    3
    51     1    27    1
@<TRIPOS>SUBSTRUCTURE
     1 lig         1 TEMP              0 ****  ****    0 ROOT


########## Name:		ligand
########## HA_RMSDs:		17.0643
########## HA_RMSDh:		16.8375
########## HA_RMSDm:		9.0404
########## Cluster Size:	2
##########    Grid Score:          -15.081640
##########      Grid_vdw:          -14.956717
##########       Grid_es:           -0.124923
##########    Int_energy:            3.023174

@<TRIPOS>MOLECULE
ligand
 48 51 1 0 0
SMALL
No Charge or Current Charge


@<TRIPOS>ATOM
      1 H1         14.2205   18.4240   31.4980 H       1  lig         0.1670
      2 H2          9.7510   25.1843   36.5438 H       1  lig         0.1473
      3 H3         11.6997   23.9377   37.0112 H       1  lig         0.0559
      4 H4         12.9461   25.1193   36.6848 H       1  lig         0.0575
      5 H5         10.4266   27.5490   33.4089 H       1  lig         0.0688
      6 H6          9.1797   26.7042   32.4934 H       1  lig         0.0740
      7 H7         12.6943   22.3059   35.6103 H       1  lig         0.0477
      8 H8         14.0436   23.0273   36.4795 H       1  lig         0.0465
      9 H9         11.5380   26.0388   31.9008 H       1  lig         0.0495
     10 H10        10.5227   24.6756   32.3737 H       1  lig         0.0527
     11 H11        15.3372   21.0965   35.4095 H       1  lig         0.0459
     12 H12        16.3876   22.5290   35.4255 H       1  lig         0.0459
     13 H13        14.0899   25.2260   31.8929 H       1  lig         0.0438
     14 H14        12.7244   24.3500   31.2623 H       1  lig         0.0425
     15 H15        17.8387   21.5782   33.9783 H       1  lig         0.0681
     16 H16        16.9754   20.0850   34.0015 H       1  lig         0.0571
     17 H17        14.9070   23.3584   30.5819 H       1  lig         0.0423
     18 H18        13.8179   22.2621   31.3841 H       1  lig         0.0489
     19 H19        12.6653   26.0579   33.9633 H       1  lig         0.0634
     20 H20        14.5645   24.3906   34.6124 H       1  lig         0.0564
     21 H21        12.3389   23.3217   33.3004 H       1  lig         0.0555
     22 H22        14.1782   21.7894   33.6974 H       1  lig         0.0551
     23 H23        17.4594   23.6895   33.2398 H       1  lig         0.0433
     24 H24        16.9693   24.2167   31.6518 H       1  lig         0.0424
     25 H25        16.1498   24.8566   33.0712 H       1  lig         0.0357
     26 H26        17.0557   21.6845   30.5994 H       1  lig         0.4072
     27 C1         14.7712   19.3127   31.7180 C.1     1  lig        -0.1335
     28 C2         15.4532   20.3535   32.0027 C.1     1  lig        -0.1688
     29 C3         10.1459   25.3635   35.5506 C.2     1  lig        -0.2674
     30 C4         11.4719   25.0173   35.1217 C.2     1  lig        -0.0292
     31 C5          9.3333   26.0976   34.5446 C.2     1  lig         0.5673
     32 C6         12.3324   24.3448   36.2186 C.3     1  lig        -0.0559
     33 C7          9.9456   26.5858   33.2397 C.3     1  lig        -0.1823
     34 C8         13.2814   23.2168   35.7257 C.3     1  lig        -0.0728
     35 C9         11.0304   25.5701   32.7463 C.3     1  lig        -0.0705
     36 C10        15.8568   21.8273   34.7855 C.3     1  lig        -0.0740
     37 C11        13.5342   24.2895   31.9822 C.3     1  lig        -0.0723
     38 C12        16.8521   21.1445   33.8205 C.3     1  lig        -0.0690
     39 C13        14.4648   23.1245   31.5505 C.3     1  lig        -0.0643
     40 C14        12.0550   25.1580   33.8472 C.3     1  lig        -0.0353
     41 C15        13.9241   23.5468   34.3461 C.3     1  lig        -0.0466
     42 C16        13.0212   24.1669   33.4420 C.3     1  lig        -0.0538
     43 C17        14.8937   22.5929   33.8957 C.3     1  lig        -0.0659
     44 C18        16.3685   21.4651   32.3964 C.3     1  lig         0.2372
     45 C19        15.5812   22.7621   32.5490 C.3     1  lig        -0.0680
     46 C20        16.5987   23.9580   32.6458 C.3     1  lig        -0.0802
     47 O1          8.2158   26.3371   34.8506 O.2     1  lig        -0.5348
     48 O2         17.4563   21.4732   31.4664 O.3     1  lig        -0.5805
@<TRIPOS>BOND
     1    31    47    2
     2    31    33    1
     3    29    31    1
     4    33    35    1
     5     5    33    1
     6     6    33    1
     7    29    30    2
     8     2    29    1
     9    30    32    1
    10    30    40    1
    11    32    34    1
    12     3    32    1
    13     4    32    1
    14    35    40    1
    15    40    42    1
    16    19    40    1
    17     9    35    1
    18    10    35    1
    19    41    42    1
    20    37    42    1
    21    21    42    1
    22    34    41    1
    23    41    43    1
    24    20    41    1
    25     7    34    1
    26     8    34    1
    27    37    39    1
    28    13    37    1
    29    14    37    1
    30    39    45    1
    31    17    39    1
    32    18    39    1
    33    43    45    1
    34    45    46    1
    35    44    45    1
    36    36    43    1
    37    22    43    1
    38    23    46    1
    39    24    46    1
    40    25    46    1
    41    44    48    1
    42    38    44    1
    43    28    44    1
    44    26    48    1
    45    36    38    1
    46    15    38    1
    47    16    38    1
    48    11    36    1
    49    12    36    1
    50    27    28    3
    51     1    27    1
@<TRIPOS>SUBSTRUCTURE
     1 lig         1 TEMP              0 ****  ****    0 ROOT


########## Name:		ligand
########## HA_RMSDs:		18.3420
########## HA_RMSDh:		17.8530
########## HA_RMSDm:		13.9337
########## Cluster Size:	1
##########    Grid Score:          -15.079564
##########      Grid_vdw:          -13.335953
##########       Grid_es:           -1.743612
##########    Int_energy:            3.199319

@<TRIPOS>MOLECULE
ligand
 48 51 1 0 0
SMALL
No Charge or Current Charge


@<TRIPOS>ATOM
      1 H1         34.4039   20.0665   32.6102 H       1  lig         0.1670
      2 H2         26.8699   14.9807   35.0285 H       1  lig         0.1473
      3 H3         26.9684   16.8443   33.5837 H       1  lig         0.0559
      4 H4         26.9175   16.0653   32.0195 H       1  lig         0.0575
      5 H5         28.9977   11.9959   33.4669 H       1  lig         0.0688
      6 H6         30.0902   12.0415   34.8493 H       1  lig         0.0740
      7 H7         28.9019   18.1023   33.0420 H       1  lig         0.0477
      8 H8         27.9013   18.1811   31.5967 H       1  lig         0.0465
      9 H9         30.9942   13.1444   32.7704 H       1  lig         0.0495
     10 H10        30.9837   14.2062   34.1794 H       1  lig         0.0527
     11 H11        29.6458   19.9113   30.8827 H       1  lig         0.0459
     12 H12        29.1767   18.9702   29.4509 H       1  lig         0.0459
     13 H13        31.4133   14.6420   30.5899 H       1  lig         0.0438
     14 H14        32.2448   14.7787   32.1128 H       1  lig         0.0425
     15 H15        30.9355   19.7488   28.2659 H       1  lig         0.0681
     16 H16        31.3985   20.8146   29.5407 H       1  lig         0.0571
     17 H17        33.3373   16.0859   30.2943 H       1  lig         0.0423
     18 H18        32.9213   17.0042   31.7139 H       1  lig         0.0489
     19 H19        29.1155   14.1951   31.8261 H       1  lig         0.0634
     20 H20        29.1903   16.4795   30.5676 H       1  lig         0.0564
     21 H21        30.6845   16.2851   32.9228 H       1  lig         0.0555
     22 H22        30.9443   18.3434   31.6641 H       1  lig         0.0551
     23 H23        30.8620   17.5050   27.9390 H       1  lig         0.0433
     24 H24        32.1357   16.3321   28.1425 H       1  lig         0.0424
     25 H25        30.5435   16.0121   28.8195 H       1  lig         0.0357
     26 H26        32.7632   18.6359   27.7088 H       1  lig         0.4072
     27 C1         33.7964   19.7799   31.7794 C.1     1  lig        -0.1335
     28 C2         33.0969   19.4109   30.7774 C.1     1  lig        -0.1688
     29 C3         27.7540   14.5949   34.5345 C.2     1  lig        -0.2674
     30 C4         28.3418   15.1569   33.3510 C.2     1  lig        -0.0292
     31 C5         28.3952   13.3440   35.0196 C.2     1  lig         0.5673
     32 C6         27.5964   16.3998   32.8075 C.3     1  lig        -0.0559
     33 C7         29.4722   12.6420   34.2052 C.3     1  lig        -0.1823
     34 C8         28.5015   17.5160   32.2152 C.3     1  lig        -0.0728
     35 C9         30.3447   13.7002   33.4497 C.3     1  lig        -0.0705
     36 C10        29.9964   19.2047   30.1269 C.3     1  lig        -0.0740
     37 C11        31.6332   15.3323   31.4078 C.3     1  lig        -0.0723
     38 C12        31.1877   19.7755   29.3252 C.3     1  lig        -0.0690
     39 C13        32.4932   16.4971   30.8482 C.3     1  lig        -0.0643
     40 C14        29.5116   14.7642   32.6716 C.3     1  lig        -0.0353
     41 C15        29.7055   16.9372   31.4150 C.3     1  lig        -0.0466
     42 C16        30.2873   15.7953   32.0271 C.3     1  lig        -0.0538
     43 C17        30.5104   17.9205   30.7531 C.3     1  lig        -0.0659
     44 C18        32.3815   18.8449   29.5958 C.3     1  lig         0.2372
     45 C19        31.7428   17.5093   29.9611 C.3     1  lig        -0.0680
     46 C20        31.2801   16.7958   28.6375 C.3     1  lig        -0.0802
     47 O1         27.9701   12.8973   36.0293 O.2     1  lig        -0.5348
     48 O2         33.3009   18.8447   28.4989 O.3     1  lig        -0.5805
@<TRIPOS>BOND
     1    31    47    2
     2    31    33    1
     3    29    31    1
     4    33    35    1
     5     5    33    1
     6     6    33    1
     7    29    30    2
     8     2    29    1
     9    30    32    1
    10    30    40    1
    11    32    34    1
    12     3    32    1
    13     4    32    1
    14    35    40    1
    15    40    42    1
    16    19    40    1
    17     9    35    1
    18    10    35    1
    19    41    42    1
    20    37    42    1
    21    21    42    1
    22    34    41    1
    23    41    43    1
    24    20    41    1
    25     7    34    1
    26     8    34    1
    27    37    39    1
    28    13    37    1
    29    14    37    1
    30    39    45    1
    31    17    39    1
    32    18    39    1
    33    43    45    1
    34    45    46    1
    35    44    45    1
    36    36    43    1
    37    22    43    1
    38    23    46    1
    39    24    46    1
    40    25    46    1
    41    44    48    1
    42    38    44    1
    43    28    44    1
    44    26    48    1
    45    36    38    1
    46    15    38    1
    47    16    38    1
    48    11    36    1
    49    12    36    1
    50    27    28    3
    51     1    27    1
@<TRIPOS>SUBSTRUCTURE
     1 lig         1 TEMP              0 ****  ****    0 ROOT


########## Name:		ligand
########## HA_RMSDs:		15.8719
########## HA_RMSDh:		15.7592
########## HA_RMSDm:		10.1747
########## Cluster Size:	1
##########    Grid Score:          -14.983241
##########      Grid_vdw:          -15.174575
##########       Grid_es:            0.191334
##########    Int_energy:            3.243136

@<TRIPOS>MOLECULE
ligand
 48 51 1 0 0
SMALL
No Charge or Current Charge


@<TRIPOS>ATOM
      1 H1         19.0460   14.8039   33.3944 H       1  lig         0.1670
      2 H2         25.6324   20.2110   37.2107 H       1  lig         0.1473
      3 H3         25.7643   17.9163   36.6747 H       1  lig         0.0559
      4 H4         26.6781   17.9668   35.1852 H       1  lig         0.0575
      5 H5         25.1556   22.3155   33.8612 H       1  lig         0.0688
      6 H6         23.5853   22.8789   34.4298 H       1  lig         0.0740
      7 H7         24.0419   16.5926   35.7285 H       1  lig         0.0477
      8 H8         25.5322   15.8921   35.1083 H       1  lig         0.0465
      9 H9         23.4720   21.0276   32.7223 H       1  lig         0.0495
     10 H10        22.6161   20.6541   34.2192 H       1  lig         0.0527
     11 H11        23.9430   14.0632   34.2861 H       1  lig         0.0459
     12 H12        25.1976   14.3064   33.0522 H       1  lig         0.0459
     13 H13        23.7347   18.7644   31.3146 H       1  lig         0.0438
     14 H14        22.3078   19.2979   32.1565 H       1  lig         0.0425
     15 H15        24.0204   13.1441   31.5136 H       1  lig         0.0681
     16 H16        22.8124   12.7217   32.6702 H       1  lig         0.0571
     17 H17        21.8694   17.3748   30.6337 H       1  lig         0.0423
     18 H18        21.3931   17.1265   32.2899 H       1  lig         0.0489
     19 H19        25.2815   19.6345   33.2788 H       1  lig         0.0634
     20 H20        25.2560   17.0354   33.0509 H       1  lig         0.0564
     21 H21        22.9608   18.2336   34.1061 H       1  lig         0.0555
     22 H22        22.8262   15.8440   33.7062 H       1  lig         0.0551
     23 H23        24.7379   15.0420   30.4987 H       1  lig         0.0433
     24 H24        23.8090   16.2216   29.6126 H       1  lig         0.0424
     25 H25        24.9627   16.7586   30.8277 H       1  lig         0.0357
     26 H26        22.8642   14.3215   29.6687 H       1  lig         0.4072
     27 C1         19.9906   14.6771   32.9117 C.1     1  lig        -0.1335
     28 C2         21.1097   14.5537   32.3103 C.1     1  lig        -0.1688
     29 C3         25.1719   20.3748   36.2435 C.2     1  lig        -0.2674
     30 C4         25.0589   19.3824   35.2117 C.2     1  lig        -0.0292
     31 C5         24.6846   21.7284   35.8675 C.2     1  lig         0.5673
     32 C6         25.6643   18.0092   35.5904 C.3     1  lig        -0.0559
     33 C7         24.2704   22.0494   34.4387 C.3     1  lig        -0.1823
     34 C8         24.8885   16.7689   35.0652 C.3     1  lig        -0.0728
     35 C9         23.6083   20.7927   33.7798 C.3     1  lig        -0.0705
     36 C10        24.1340   14.3960   33.2632 C.3     1  lig        -0.0740
     37 C11        23.0251   18.4857   32.0973 C.3     1  lig        -0.0723
     38 C12        23.3263   13.5696   32.2372 C.3     1  lig        -0.0690
     39 C13        22.2629   17.2140   31.6376 C.3     1  lig        -0.0643
     40 C14        24.4343   19.4814   33.9530 C.3     1  lig        -0.0353
     41 C15        24.3299   16.9870   33.6281 C.3     1  lig        -0.0466
     42 C16        23.8132   18.2936   33.4207 C.3     1  lig        -0.0538
     43 C17        23.7020   15.8360   33.0506 C.3     1  lig        -0.0659
     44 C18        22.3821   14.5556   31.5296 C.3     1  lig         0.2372
     45 C19        23.0772   15.9061   31.6650 C.3     1  lig        -0.0680
     46 C20        24.2266   15.9882   30.5940 C.3     1  lig        -0.0802
     47 O1         24.7074   22.5471   36.7213 O.2     1  lig        -0.5348
     48 O2         22.0706   14.1175   30.2031 O.3     1  lig        -0.5805
@<TRIPOS>BOND
     1    31    47    2
     2    31    33    1
     3    29    31    1
     4    33    35    1
     5     5    33    1
     6     6    33    1
     7    29    30    2
     8     2    29    1
     9    30    32    1
    10    30    40    1
    11    32    34    1
    12     3    32    1
    13     4    32    1
    14    35    40    1
    15    40    42    1
    16    19    40    1
    17     9    35    1
    18    10    35    1
    19    41    42    1
    20    37    42    1
    21    21    42    1
    22    34    41    1
    23    41    43    1
    24    20    41    1
    25     7    34    1
    26     8    34    1
    27    37    39    1
    28    13    37    1
    29    14    37    1
    30    39    45    1
    31    17    39    1
    32    18    39    1
    33    43    45    1
    34    45    46    1
    35    44    45    1
    36    36    43    1
    37    22    43    1
    38    23    46    1
    39    24    46    1
    40    25    46    1
    41    44    48    1
    42    38    44    1
    43    28    44    1
    44    26    48    1
    45    36    38    1
    46    15    38    1
    47    16    38    1
    48    11    36    1
    49    12    36    1
    50    27    28    3
    51     1    27    1
@<TRIPOS>SUBSTRUCTURE
     1 lig         1 TEMP              0 ****  ****    0 ROOT


########## Name:		ligand
########## HA_RMSDs:		15.2794
########## HA_RMSDh:		15.1618
########## HA_RMSDm:		8.8241
########## Cluster Size:	8
##########    Grid Score:          -14.971166
##########      Grid_vdw:          -14.117853
##########       Grid_es:           -0.853313
##########    Int_energy:            3.230039

@<TRIPOS>MOLECULE
ligand
 48 51 1 0 0
SMALL
No Charge or Current Charge


@<TRIPOS>ATOM
      1 H1         21.6490   21.5479   31.3245 H       1  lig         0.1670
      2 H2         26.5884   14.3089   33.9406 H       1  lig         0.1473
      3 H3         25.4710   15.9332   35.2380 H       1  lig         0.0559
      4 H4         24.0694   15.0359   35.7732 H       1  lig         0.0575
      5 H5         23.9001   12.1343   31.9608 H       1  lig         0.0688
      6 H6         24.5594   12.7013   30.4277 H       1  lig         0.0740
      7 H7         24.1693   17.7352   34.4178 H       1  lig         0.0477
      8 H8         23.4223   17.3102   35.9532 H       1  lig         0.0465
      9 H9         22.4228   13.8416   31.1281 H       1  lig         0.0495
     10 H10        23.7481   14.9645   30.8188 H       1  lig         0.0527
     11 H11        22.1105   19.4670   35.5360 H       1  lig         0.0459
     12 H12        21.0142   18.2838   36.2802 H       1  lig         0.0459
     13 H13        20.4761   15.1666   32.4038 H       1  lig         0.0438
     14 H14        21.3946   15.7396   31.0409 H       1  lig         0.0425
     15 H15        19.1965   19.5144   35.7457 H       1  lig         0.0681
     16 H16        20.1723   20.7958   35.1281 H       1  lig         0.0571
     17 H17        19.4096   17.1624   31.5358 H       1  lig         0.0423
     18 H18        20.9304   18.0091   31.4921 H       1  lig         0.0489
     19 H19        22.6361   14.0581   33.4589 H       1  lig         0.0634
     20 H20        21.7321   16.0837   34.8328 H       1  lig         0.0564
     21 H21        23.0105   16.6665   32.4155 H       1  lig         0.0555
     22 H22        21.9931   18.5476   33.5622 H       1  lig         0.0551
     23 H23        18.7339   17.3700   35.1675 H       1  lig         0.0433
     24 H24        18.1674   16.7517   33.6389 H       1  lig         0.0424
     25 H25        19.5080   15.9563   34.4550 H       1  lig         0.0357
     26 H26        17.6990   18.8135   33.9193 H       1  lig         0.4072
     27 C1         21.0049   20.9488   31.9308 C.1     1  lig        -0.1335
     28 C2         20.2666   20.2161   32.6705 C.1     1  lig        -0.1688
     29 C3         25.6877   14.2150   33.3454 C.2     1  lig        -0.2674
     30 C4         24.4288   14.8288   33.6626 C.2     1  lig        -0.0292
     31 C5         25.6695   13.3276   32.1523 C.2     1  lig         0.5673
     32 C6         24.4473   15.6659   34.9644 C.3     1  lig        -0.0559
     33 C7         24.3660   12.9766   31.4496 C.3     1  lig        -0.1823
     34 C8         23.5961   16.9661   34.9352 C.3     1  lig        -0.0728
     35 C9         23.3843   14.1951   31.5061 C.3     1  lig        -0.0705
     36 C10        21.2160   18.8596   35.3794 C.3     1  lig        -0.0740
     37 C11        21.1409   15.9674   32.0712 C.3     1  lig        -0.0723
     38 C12        19.9898   19.7337   35.0323 C.3     1  lig        -0.0690
     39 C13        20.3449   17.3000   32.0788 C.3     1  lig        -0.0643
     40 C14        23.2261   14.8116   32.9297 C.3     1  lig        -0.0353
     41 C15        22.2541   16.7761   34.1684 C.3     1  lig        -0.0466
     42 C16        22.3854   15.9815   32.9985 C.3     1  lig        -0.0538
     43 C17        21.3794   17.9102   34.2057 C.3     1  lig        -0.0659
     44 C18        19.5443   19.3189   33.6202 C.3     1  lig         0.2372
     45 C19        20.0467   17.8868   33.4721 C.3     1  lig        -0.0680
     46 C20        19.0626   16.9282   34.2387 C.3     1  lig        -0.0802
     47 O1         26.7089   12.8615   31.8327 O.2     1  lig        -0.5348
     48 O2         18.1423   19.5364   33.4316 O.3     1  lig        -0.5805
@<TRIPOS>BOND
     1    31    47    2
     2    31    33    1
     3    29    31    1
     4    33    35    1
     5     5    33    1
     6     6    33    1
     7    29    30    2
     8     2    29    1
     9    30    32    1
    10    30    40    1
    11    32    34    1
    12     3    32    1
    13     4    32    1
    14    35    40    1
    15    40    42    1
    16    19    40    1
    17     9    35    1
    18    10    35    1
    19    41    42    1
    20    37    42    1
    21    21    42    1
    22    34    41    1
    23    41    43    1
    24    20    41    1
    25     7    34    1
    26     8    34    1
    27    37    39    1
    28    13    37    1
    29    14    37    1
    30    39    45    1
    31    17    39    1
    32    18    39    1
    33    43    45    1
    34    45    46    1
    35    44    45    1
    36    36    43    1
    37    22    43    1
    38    23    46    1
    39    24    46    1
    40    25    46    1
    41    44    48    1
    42    38    44    1
    43    28    44    1
    44    26    48    1
    45    36    38    1
    46    15    38    1
    47    16    38    1
    48    11    36    1
    49    12    36    1
    50    27    28    3
    51     1    27    1
@<TRIPOS>SUBSTRUCTURE
     1 lig         1 TEMP              0 ****  ****    0 ROOT


########## Name:		ligand
########## HA_RMSDs:		15.6378
########## HA_RMSDh:		15.4219
########## HA_RMSDm:		10.1565
########## Cluster Size:	5
##########    Grid Score:          -14.780979
##########      Grid_vdw:          -13.947330
##########       Grid_es:           -0.833650
##########    Int_energy:            3.015436

@<TRIPOS>MOLECULE
ligand
 48 51 1 0 0
SMALL
No Charge or Current Charge


@<TRIPOS>ATOM
      1 H1         24.1276   17.7548   32.0747 H       1  lig         0.1670
      2 H2         14.9541   19.2742   34.3537 H       1  lig         0.1473
      3 H3         16.8613   19.0062   35.7180 H       1  lig         0.0559
      4 H4         17.1731   20.6587   36.1955 H       1  lig         0.0575
      5 H5         15.3114   22.6359   32.2449 H       1  lig         0.0688
      6 H6         15.3054   21.7060   30.7476 H       1  lig         0.0740
      7 H7         19.0845   18.6617   34.9741 H       1  lig         0.0477
      8 H8         19.2534   19.5564   36.4798 H       1  lig         0.0465
      9 H9         17.5885   22.4829   31.4823 H       1  lig         0.0495
     10 H10        17.4857   20.7382   31.2406 H       1  lig         0.0527
     11 H11        21.7273   18.9898   36.1556 H       1  lig         0.0459
     12 H12        21.6156   20.6291   36.8308 H       1  lig         0.0459
     13 H13        19.8564   23.0184   32.8024 H       1  lig         0.0438
     14 H14        19.6701   21.9048   31.4778 H       1  lig         0.0425
     15 H15        23.7775   21.0635   36.3396 H       1  lig         0.0681
     16 H16        24.0400   19.4481   35.7944 H       1  lig         0.0571
     17 H17        22.0571   22.3684   32.0224 H       1  lig         0.0423
     18 H18        21.6123   20.6851   32.0345 H       1  lig         0.0489
     19 H19        17.5300   22.2740   33.8228 H       1  lig         0.0634
     20 H20        19.5756   21.5775   35.2849 H       1  lig         0.0564
     21 H21        19.1766   20.1550   32.9112 H       1  lig         0.0555
     22 H22        21.2034   19.6311   34.1384 H       1  lig         0.0551
     23 H23        22.5720   22.8588   35.6533 H       1  lig         0.0433
     24 H24        22.5637   23.6328   34.0911 H       1  lig         0.0424
     25 H25        21.0380   23.2518   34.8802 H       1  lig         0.0357
     26 H26        24.4945   22.4275   34.6808 H       1  lig         0.4072
     27 C1         23.8885   18.6381   32.6261 C.1     1  lig        -0.1335
     28 C2         23.6273   19.6820   33.3126 C.1     1  lig        -0.1688
     29 C3         15.5286   19.9636   33.7461 C.2     1  lig        -0.2674
     30 C4         16.8347   20.4576   34.0808 C.2     1  lig        -0.0292
     31 C5         14.9367   20.5429   32.5112 C.2     1  lig         0.5673
     32 C6         17.3872   19.9173   35.4220 C.3     1  lig        -0.0559
     33 C7         15.6086   21.6961   31.7798 C.3     1  lig        -0.1823
     34 C8         18.9142   19.6283   35.4479 C.3     1  lig        -0.0728
     35 C9         17.1650   21.5611   31.8861 C.3     1  lig        -0.0705
     36 C10        21.9154   20.0482   35.9611 C.3     1  lig        -0.0740
     37 C11        19.9807   21.9715   32.5154 C.3     1  lig        -0.0723
     38 C12        23.4051   20.3114   35.6453 C.3     1  lig        -0.0690
     39 C13        21.4917   21.6217   32.5804 C.3     1  lig        -0.0643
     40 C14        17.6778   21.3058   33.3365 C.3     1  lig        -0.0353
     41 C15        19.7305   20.6950   34.6601 C.3     1  lig        -0.0466
     42 C16        19.1009   21.1033   33.4542 C.3     1  lig        -0.0538
     43 C17        21.1524   20.5406   34.7442 C.3     1  lig        -0.0659
     44 C18        23.4560   20.8622   34.2105 C.3     1  lig         0.2372
     45 C19        22.0812   21.4866   33.9976 C.3     1  lig        -0.0680
     46 C20        22.0526   22.8903   34.7073 C.3     1  lig        -0.0802
     47 O1         13.8892   20.1045   32.1791 O.2     1  lig        -0.5348
     48 O2         24.5907   21.7133   34.0193 O.3     1  lig        -0.5805
@<TRIPOS>BOND
     1    31    47    2
     2    31    33    1
     3    29    31    1
     4    33    35    1
     5     5    33    1
     6     6    33    1
     7    29    30    2
     8     2    29    1
     9    30    32    1
    10    30    40    1
    11    32    34    1
    12     3    32    1
    13     4    32    1
    14    35    40    1
    15    40    42    1
    16    19    40    1
    17     9    35    1
    18    10    35    1
    19    41    42    1
    20    37    42    1
    21    21    42    1
    22    34    41    1
    23    41    43    1
    24    20    41    1
    25     7    34    1
    26     8    34    1
    27    37    39    1
    28    13    37    1
    29    14    37    1
    30    39    45    1
    31    17    39    1
    32    18    39    1
    33    43    45    1
    34    45    46    1
    35    44    45    1
    36    36    43    1
    37    22    43    1
    38    23    46    1
    39    24    46    1
    40    25    46    1
    41    44    48    1
    42    38    44    1
    43    28    44    1
    44    26    48    1
    45    36    38    1
    46    15    38    1
    47    16    38    1
    48    11    36    1
    49    12    36    1
    50    27    28    3
    51     1    27    1
@<TRIPOS>SUBSTRUCTURE
     1 lig         1 TEMP              0 ****  ****    0 ROOT


########## Name:		ligand
########## HA_RMSDs:		17.9960
########## HA_RMSDh:		17.9960
########## HA_RMSDm:		14.1968
########## Cluster Size:	2
##########    Grid Score:          -14.561169
##########      Grid_vdw:          -11.955686
##########       Grid_es:           -2.605483
##########    Int_energy:            3.137441

@<TRIPOS>MOLECULE
ligand
 48 51 1 0 0
SMALL
No Charge or Current Charge


@<TRIPOS>ATOM
      1 H1          2.2523   21.6568   11.4854 H       1  lig         0.1670
      2 H2          9.0867   22.9893    5.0274 H       1  lig         0.1473
      3 H3          9.1901   21.7625    7.0410 H       1  lig         0.0559
      4 H4          9.0277   20.1250    6.4506 H       1  lig         0.0575
      5 H5          6.4367   21.2860    2.5878 H       1  lig         0.0688
      6 H6          5.4482   22.7447    2.6310 H       1  lig         0.0740
      7 H7          7.4441   21.5066    8.6223 H       1  lig         0.0477
      8 H8          8.3573   20.0058    8.7221 H       1  lig         0.0465
      9 H9          4.6026   20.8698    4.0889 H       1  lig         0.0495
     10 H10         4.8598   22.3788    4.9662 H       1  lig         0.0527
     11 H11         6.8601   19.6149   10.7597 H       1  lig         0.0459
     12 H12         7.0932   18.0596    9.9336 H       1  lig         0.0459
     13 H13         4.2898   18.8993    5.8755 H       1  lig         0.0438
     14 H14         3.5810   20.4870    5.9536 H       1  lig         0.0425
     15 H15         5.4077   17.1016   11.0934 H       1  lig         0.0681
     16 H16         5.1905   18.5141   12.0595 H       1  lig         0.0571
     17 H17         2.5963   18.9063    7.6093 H       1  lig         0.0423
     18 H18         3.2320   20.3796    8.2852 H       1  lig         0.0489
     19 H19         6.5609   19.9021    4.9568 H       1  lig         0.0634
     20 H20         6.7634   18.9030    7.3586 H       1  lig         0.0564
     21 H21         5.3996   21.3311    7.1113 H       1  lig         0.0555
     22 H22         5.3849   20.3218    9.3180 H       1  lig         0.0551
     23 H23         5.1160   16.5334    8.9165 H       1  lig         0.0433
     24 H24         3.6915   16.7076    7.9265 H       1  lig         0.0424
     25 H25         5.2530   17.2233    7.3008 H       1  lig         0.0357
     26 H26         3.4040   16.5699   10.3418 H       1  lig         0.4072
     27 C1          2.7783   20.7819   11.1704 C.1     1  lig        -0.1335
     28 C2          3.3730   19.7204   10.7843 C.1     1  lig        -0.1688
     29 C3          8.1261   22.5260    4.8351 C.2     1  lig        -0.2674
     30 C4          7.5624   21.4571    5.6110 C.2     1  lig        -0.0292
     31 C5          7.3303   22.9228    3.6433 C.2     1  lig         0.5673
     32 C6          8.4563   20.9936    6.7865 C.3     1  lig        -0.0559
     33 C7          6.1118   22.1229    3.2059 C.3     1  lig        -0.1823
     34 C8          7.6999   20.5940    8.0843 C.3     1  lig        -0.0728
     35 C9          5.3689   21.5529    4.4609 C.3     1  lig        -0.0705
     36 C10         6.3609   18.8171   10.2048 C.3     1  lig        -0.0740
     37 C11         4.2276   19.8003    6.4904 C.3     1  lig        -0.0723
     38 C12         5.2259   18.1738   11.0331 C.3     1  lig        -0.0690
     39 C13         3.5250   19.4349    7.8254 C.3     1  lig        -0.0643
     40 C14         6.3079   20.8310    5.4752 C.3     1  lig        -0.0353
     41 C15         6.3759   19.8310    7.7847 C.3     1  lig        -0.0466
     42 C16         5.6629   20.3608    6.6765 C.3     1  lig        -0.0538
     43 C17         5.6937   19.3407    8.9454 C.3     1  lig        -0.0659
     44 C18         3.9215   18.4342   10.2616 C.3     1  lig         0.2372
     45 C19         4.3680   18.6058    8.8137 C.3     1  lig        -0.0680
     46 C20         4.6361   17.1824    8.1995 C.3     1  lig        -0.0802
     47 O1          7.7409   23.8439    3.0247 O.2     1  lig        -0.5348
     48 O2          2.9495   17.4169   10.5235 O.3     1  lig        -0.5805
@<TRIPOS>BOND
     1    31    47    2
     2    31    33    1
     3    29    31    1
     4    33    35    1
     5     5    33    1
     6     6    33    1
     7    29    30    2
     8     2    29    1
     9    30    32    1
    10    30    40    1
    11    32    34    1
    12     3    32    1
    13     4    32    1
    14    35    40    1
    15    40    42    1
    16    19    40    1
    17     9    35    1
    18    10    35    1
    19    41    42    1
    20    37    42    1
    21    21    42    1
    22    34    41    1
    23    41    43    1
    24    20    41    1
    25     7    34    1
    26     8    34    1
    27    37    39    1
    28    13    37    1
    29    14    37    1
    30    39    45    1
    31    17    39    1
    32    18    39    1
    33    43    45    1
    34    45    46    1
    35    44    45    1
    36    36    43    1
    37    22    43    1
    38    23    46    1
    39    24    46    1
    40    25    46    1
    41    44    48    1
    42    38    44    1
    43    28    44    1
    44    26    48    1
    45    36    38    1
    46    15    38    1
    47    16    38    1
    48    11    36    1
    49    12    36    1
    50    27    28    3
    51     1    27    1
@<TRIPOS>SUBSTRUCTURE
     1 lig         1 TEMP              0 ****  ****    0 ROOT


########## Name:		ligand
########## HA_RMSDs:		15.7569
########## HA_RMSDh:		15.5069
########## HA_RMSDm:		9.5078
########## Cluster Size:	4
##########    Grid Score:          -14.545960
##########      Grid_vdw:          -14.150236
##########       Grid_es:           -0.395725
##########    Int_energy:            3.248666

@<TRIPOS>MOLECULE
ligand
 48 51 1 0 0
SMALL
No Charge or Current Charge


@<TRIPOS>ATOM
      1 H1         23.6494   24.0126   31.9768 H       1  lig         0.1670
      2 H2         26.7786   16.5282   36.1631 H       1  lig         0.1473
      3 H3         25.0765   18.0266   36.8174 H       1  lig         0.0559
      4 H4         23.6435   17.0943   36.4521 H       1  lig         0.0575
      5 H5         25.6269   14.5871   32.8796 H       1  lig         0.0688
      6 H6         26.9667   15.2970   31.9810 H       1  lig         0.0740
      7 H7         24.3207   19.9136   35.6001 H       1  lig         0.0477
      8 H8         22.8988   19.3456   36.4672 H       1  lig         0.0465
      9 H9         24.7326   16.3829   31.5508 H       1  lig         0.0495
     10 H10        25.9722   17.5180   32.0871 H       1  lig         0.0527
     11 H11        21.9075   21.5459   35.6170 H       1  lig         0.0459
     12 H12        20.6370   20.3054   35.5635 H       1  lig         0.0459
     13 H13        22.3499   17.5937   31.7236 H       1  lig         0.0438
     14 H14        23.8205   18.2901   31.1057 H       1  lig         0.0425
     15 H15        19.3177   21.6006   34.2650 H       1  lig         0.0681
     16 H16        20.4150   22.9274   34.3710 H       1  lig         0.0571
     17 H17        21.8106   19.6760   30.6069 H       1  lig         0.0423
     18 H18        23.0893   20.5080   31.4460 H       1  lig         0.0489
     19 H19        23.6818   16.3650   33.6533 H       1  lig         0.0634
     20 H20        22.1034   18.2529   34.5205 H       1  lig         0.0564
     21 H21        24.4327   19.0603   33.2015 H       1  lig         0.0555
     22 H22        22.8833   20.8280   33.8039 H       1  lig         0.0551
     23 H23        19.3220   19.5287   33.3407 H       1  lig         0.0433
     24 H24        19.6694   19.0707   31.6948 H       1  lig         0.0424
     25 H25        20.4161   18.1853   33.0192 H       1  lig         0.0357
     26 H26        19.4058   22.8047   31.8852 H       1  lig         0.4072
     27 C1         22.8017   23.3759   32.1088 C.1     1  lig        -0.1335
     28 C2         21.8097   22.5935   32.2906 C.1     1  lig        -0.1688
     29 C3         26.3291   16.5026   35.1774 C.2     1  lig        -0.2674
     30 C4         25.0653   17.0942   34.8380 C.2     1  lig        -0.0292
     31 C5         26.9784   15.7383   34.0795 C.2     1  lig         0.5673
     32 C6         24.3613   17.7977   36.0234 C.3     1  lig        -0.0559
     33 C7         26.2542   15.4714   32.7680 C.3     1  lig        -0.1823
     34 C8         23.5957   19.1026   35.6670 C.3     1  lig        -0.0728
     35 C9         25.3362   16.6878   32.4080 C.3     1  lig        -0.0705
     36 C10        21.2558   20.9657   34.9595 C.3     1  lig        -0.0740
     37 C11        23.0544   18.4170   31.8638 C.3     1  lig        -0.0723
     38 C12        20.3568   21.8819   34.0989 C.3     1  lig        -0.0690
     39 C13        22.3150   19.7499   31.5706 C.3     1  lig        -0.0643
     40 C14        24.4279   17.1614   33.5837 C.3     1  lig        -0.0353
     41 C15        22.8652   19.0027   34.2954 C.3     1  lig        -0.0466
     42 C16        23.6255   18.3269   33.3042 C.3     1  lig        -0.0538
     43 C17        22.0521   20.1360   33.9681 C.3     1  lig        -0.0659
     44 C18        20.7369   21.6136   32.6333 C.3     1  lig         0.2372
     45 C19        21.3048   20.1985   32.6443 C.3     1  lig        -0.0680
     46 C20        20.1081   19.1782   32.6888 C.3     1  lig        -0.0802
     47 O1         28.0503   15.2960   34.3146 O.2     1  lig        -0.5348
     48 O2         19.6342   21.8624   31.7554 O.3     1  lig        -0.5805
@<TRIPOS>BOND
     1    31    47    2
     2    31    33    1
     3    29    31    1
     4    33    35    1
     5     5    33    1
     6     6    33    1
     7    29    30    2
     8     2    29    1
     9    30    32    1
    10    30    40    1
    11    32    34    1
    12     3    32    1
    13     4    32    1
    14    35    40    1
    15    40    42    1
    16    19    40    1
    17     9    35    1
    18    10    35    1
    19    41    42    1
    20    37    42    1
    21    21    42    1
    22    34    41    1
    23    41    43    1
    24    20    41    1
    25     7    34    1
    26     8    34    1
    27    37    39    1
    28    13    37    1
    29    14    37    1
    30    39    45    1
    31    17    39    1
    32    18    39    1
    33    43    45    1
    34    45    46    1
    35    44    45    1
    36    36    43    1
    37    22    43    1
    38    23    46    1
    39    24    46    1
    40    25    46    1
    41    44    48    1
    42    38    44    1
    43    28    44    1
    44    26    48    1
    45    36    38    1
    46    15    38    1
    47    16    38    1
    48    11    36    1
    49    12    36    1
    50    27    28    3
    51     1    27    1
@<TRIPOS>SUBSTRUCTURE
     1 lig         1 TEMP              0 ****  ****    0 ROOT


########## Name:		ligand
########## HA_RMSDs:		18.0775
########## HA_RMSDh:		18.0225
########## HA_RMSDm:		14.9704
########## Cluster Size:	1
##########    Grid Score:          -14.419586
##########      Grid_vdw:          -14.608079
##########       Grid_es:            0.188493
##########    Int_energy:            3.010688

@<TRIPOS>MOLECULE
ligand
 48 51 1 0 0
SMALL
No Charge or Current Charge


@<TRIPOS>ATOM
      1 H1         33.8216    8.1238   32.5940 H       1  lig         0.1670
      2 H2         33.6723   15.8880   26.9633 H       1  lig         0.1473
      3 H3         32.9023   13.6901   26.5808 H       1  lig         0.0559
      4 H4         31.1776   13.8941   26.7809 H       1  lig         0.0575
      5 H5         31.5038   17.5522   29.8622 H       1  lig         0.0688
      6 H6         32.9440   17.6936   30.8685 H       1  lig         0.0740
      7 H7         32.9995   11.8809   28.1078 H       1  lig         0.0477
      8 H8         31.5492   11.5825   27.1572 H       1  lig         0.0465
      9 H9         31.4278   15.7755   31.4833 H       1  lig         0.0495
     10 H10        33.0876   15.2784   31.1502 H       1  lig         0.0527
     11 H11        31.6103    9.3342   28.3771 H       1  lig         0.0459
     12 H12        29.9133    9.8345   28.2165 H       1  lig         0.0459
     13 H13        29.8852   13.5866   31.5261 H       1  lig         0.0438
     14 H14        31.4572   13.7572   32.2534 H       1  lig         0.0425
     15 H15        29.2344    8.2924   29.7215 H       1  lig         0.0681
     16 H16        30.8216    7.6283   29.8457 H       1  lig         0.0571
     17 H17        30.2715   11.6921   32.9875 H       1  lig         0.0423
     18 H18        31.8513   11.4309   32.3036 H       1  lig         0.0489
     19 H19        30.6558   14.9793   29.4108 H       1  lig         0.0634
     20 H20        30.1904   12.4662   28.8860 H       1  lig         0.0564
     21 H21        32.5180   13.0468   30.3220 H       1  lig         0.0555
     22 H22        32.0023   10.6928   30.0371 H       1  lig         0.0551
     23 H23        28.2170   10.2438   30.2727 H       1  lig         0.0433
     24 H24        28.1845   11.0582   31.8139 H       1  lig         0.0424
     25 H25        28.5459   11.9731   30.3551 H       1  lig         0.0357
     26 H26        29.6771    7.6507   32.2772 H       1  lig         0.4072
     27 C1         32.8767    8.4881   32.2537 C.1     1  lig        -0.1335
     28 C2         31.7390    8.8877   31.8348 C.1     1  lig        -0.1688
     29 C3         33.1843   15.8535   27.9303 C.2     1  lig        -0.2674
     30 C4         32.3087   14.8031   28.3687 C.2     1  lig        -0.0292
     31 C5         33.3226   16.9908   28.8782 C.2     1  lig         0.5673
     32 C6         32.1012   13.6799   27.3241 C.3     1  lig        -0.0559
     33 C7         32.4551   17.0894   30.1246 C.3     1  lig        -0.1823
     34 C8         31.9918   12.2413   27.9022 C.3     1  lig        -0.0728
     35 C9         32.1700   15.6578   30.6911 C.3     1  lig        -0.0705
     36 C10        30.7155    9.6389   28.9250 C.3     1  lig        -0.0740
     37 C11        30.8969   13.1740   31.5297 C.3     1  lig        -0.0723
     38 C12        30.2702    8.5552   29.9325 C.3     1  lig        -0.0690
     39 C13        30.8285   11.7133   32.0505 C.3     1  lig        -0.0643
     40 C14        31.6754   14.6418   29.6165 C.3     1  lig        -0.0353
     41 C15        31.1902   12.2007   29.2367 C.3     1  lig        -0.0466
     42 C16        31.4758   13.2958   30.0948 C.3     1  lig        -0.0538
     43 C17        30.9625   10.8851   29.7565 C.3     1  lig        -0.0659
     44 C18        30.3678    9.1914   31.3290 C.3     1  lig         0.2372
     45 C19        30.2242   10.6876   31.0721 C.3     1  lig        -0.0680
     46 C20        28.7011   11.0150   30.8529 C.3     1  lig        -0.0802
     47 O1         34.0884   17.8380   28.5687 O.2     1  lig        -0.5348
     48 O2         29.4353    8.5978   32.2381 O.3     1  lig        -0.5805
@<TRIPOS>BOND
     1    31    47    2
     2    31    33    1
     3    29    31    1
     4    33    35    1
     5     5    33    1
     6     6    33    1
     7    29    30    2
     8     2    29    1
     9    30    32    1
    10    30    40    1
    11    32    34    1
    12     3    32    1
    13     4    32    1
    14    35    40    1
    15    40    42    1
    16    19    40    1
    17     9    35    1
    18    10    35    1
    19    41    42    1
    20    37    42    1
    21    21    42    1
    22    34    41    1
    23    41    43    1
    24    20    41    1
    25     7    34    1
    26     8    34    1
    27    37    39    1
    28    13    37    1
    29    14    37    1
    30    39    45    1
    31    17    39    1
    32    18    39    1
    33    43    45    1
    34    45    46    1
    35    44    45    1
    36    36    43    1
    37    22    43    1
    38    23    46    1
    39    24    46    1
    40    25    46    1
    41    44    48    1
    42    38    44    1
    43    28    44    1
    44    26    48    1
    45    36    38    1
    46    15    38    1
    47    16    38    1
    48    11    36    1
    49    12    36    1
    50    27    28    3
    51     1    27    1
@<TRIPOS>SUBSTRUCTURE
     1 lig         1 TEMP              0 ****  ****    0 ROOT


########## Name:		ligand
########## HA_RMSDs:		15.4079
########## HA_RMSDh:		15.2720
########## HA_RMSDm:		10.1863
########## Cluster Size:	3
##########    Grid Score:          -14.264639
##########      Grid_vdw:          -13.764895
##########       Grid_es:           -0.499744
##########    Int_energy:            3.011058

@<TRIPOS>MOLECULE
ligand
 48 51 1 0 0
SMALL
No Charge or Current Charge


@<TRIPOS>ATOM
      1 H1         26.2715   22.5071   34.1358 H       1  lig         0.1670
      2 H2         24.5667   13.0744   33.8197 H       1  lig         0.1473
      3 H3         23.8871   14.7137   35.3757 H       1  lig         0.0559
      4 H4         22.2195   14.9547   34.9097 H       1  lig         0.0575
      5 H5         22.8658   13.8253   30.2957 H       1  lig         0.0688
      6 H6         24.4545   14.0694   29.5724 H       1  lig         0.0740
      7 H7         24.3853   17.0284   35.2866 H       1  lig         0.0477
      8 H8         22.8073   16.9431   36.0604 H       1  lig         0.0465
      9 H9         23.2093   16.1984   30.0943 H       1  lig         0.0495
     10 H10        24.8082   16.1214   30.8363 H       1  lig         0.0527
     11 H11        23.2424   19.4299   36.4762 H       1  lig         0.0459
     12 H12        21.5156   19.2195   36.1164 H       1  lig         0.0459
     13 H13        21.8504   18.2087   31.2277 H       1  lig         0.0438
     14 H14        23.5149   18.2434   30.7203 H       1  lig         0.0425
     15 H15        21.2308   21.4381   35.7990 H       1  lig         0.0681
     16 H16        22.8542   21.7746   36.2753 H       1  lig         0.0571
     17 H17        22.6255   20.5046   31.2731 H       1  lig         0.0423
     18 H18        24.0654   20.0475   32.1388 H       1  lig         0.0489
     19 H19        22.1221   15.7333   32.1257 H       1  lig         0.0634
     20 H20        21.7359   17.4877   34.0180 H       1  lig         0.0564
     21 H21        24.2451   17.4915   32.7846 H       1  lig         0.0555
     22 H22        23.8434   19.2698   34.3861 H       1  lig         0.0551
     23 H23        20.2053   20.3878   34.0691 H       1  lig         0.0433
     24 H24        20.4044   20.6580   32.3583 H       1  lig         0.0424
     25 H25        20.4280   19.0149   32.9871 H       1  lig         0.0357
     26 H26        22.1197   23.3617   34.2770 H       1  lig         0.4072
     27 C1         25.2576   22.1751   34.0796 C.1     1  lig        -0.1335
     28 C2         24.0379   21.8004   34.0431 C.1     1  lig        -0.1688
     29 C3         24.2693   13.7523   33.0282 C.2     1  lig        -0.2674
     30 C4         23.5617   14.9857   33.2291 C.2     1  lig        -0.0292
     31 C5         24.5045   13.3891   31.6056 C.2     1  lig         0.5673
     32 C6         23.2398   15.2920   34.7118 C.3     1  lig        -0.0559
     33 C7         23.8778   14.1891   30.4727 C.3     1  lig        -0.1823
     34 C8         23.3352   16.7884   35.1211 C.3     1  lig        -0.0728
     35 C9         23.7983   15.7021   30.8682 C.3     1  lig        -0.0705
     36 C10        22.4462   19.6595   35.7642 C.3     1  lig        -0.0740
     37 C11        22.8705   18.3703   31.5842 C.3     1  lig        -0.0723
     38 C12        22.2680   21.1839   35.5840 C.3     1  lig        -0.0690
     39 C13        22.9970   19.8436   32.0564 C.3     1  lig        -0.0643
     40 C14        23.1823   15.9534   32.2785 C.3     1  lig        -0.0353
     41 C15        22.7988   17.7395   34.0108 C.3     1  lig        -0.0466
     42 C16        23.1646   17.3325   32.7002 C.3     1  lig        -0.0538
     43 C17        22.7592   19.1238   34.3784 C.3     1  lig        -0.0659
     44 C18        22.5796   21.4882   34.1093 C.3     1  lig         0.2372
     45 C19        22.2917   20.1774   33.3853 C.3     1  lig        -0.0680
     46 C20        20.7360   20.0404   33.1954 C.3     1  lig        -0.0802
     47 O1         25.1417   12.4105   31.4152 O.2     1  lig        -0.5348
     48 O2         21.8730   22.6473   33.6560 O.3     1  lig        -0.5805
@<TRIPOS>BOND
     1    31    47    2
     2    31    33    1
     3    29    31    1
     4    33    35    1
     5     5    33    1
     6     6    33    1
     7    29    30    2
     8     2    29    1
     9    30    32    1
    10    30    40    1
    11    32    34    1
    12     3    32    1
    13     4    32    1
    14    35    40    1
    15    40    42    1
    16    19    40    1
    17     9    35    1
    18    10    35    1
    19    41    42    1
    20    37    42    1
    21    21    42    1
    22    34    41    1
    23    41    43    1
    24    20    41    1
    25     7    34    1
    26     8    34    1
    27    37    39    1
    28    13    37    1
    29    14    37    1
    30    39    45    1
    31    17    39    1
    32    18    39    1
    33    43    45    1
    34    45    46    1
    35    44    45    1
    36    36    43    1
    37    22    43    1
    38    23    46    1
    39    24    46    1
    40    25    46    1
    41    44    48    1
    42    38    44    1
    43    28    44    1
    44    26    48    1
    45    36    38    1
    46    15    38    1
    47    16    38    1
    48    11    36    1
    49    12    36    1
    50    27    28    3
    51     1    27    1
@<TRIPOS>SUBSTRUCTURE
     1 lig         1 TEMP              0 ****  ****    0 ROOT


########## Name:		ligand
########## HA_RMSDs:		17.4451
########## HA_RMSDh:		17.1855
########## HA_RMSDm:		14.3563
########## Cluster Size:	2
##########    Grid Score:          -14.256167
##########      Grid_vdw:          -13.920640
##########       Grid_es:           -0.335528
##########    Int_energy:            3.053594

@<TRIPOS>MOLECULE
ligand
 48 51 1 0 0
SMALL
No Charge or Current Charge


@<TRIPOS>ATOM
      1 H1          9.2788   21.3138    9.9889 H       1  lig         0.1670
      2 H2          3.1425   28.3925   12.1356 H       1  lig         0.1473
      3 H3          2.8682   26.5832   10.6451 H       1  lig         0.0559
      4 H4          1.8745   25.5053   11.5975 H       1  lig         0.0575
      5 H5          3.5299   26.9896   15.8447 H       1  lig         0.0688
      6 H6          5.1558   27.6639   15.9379 H       1  lig         0.0740
      7 H7          4.4670   24.9012   10.1668 H       1  lig         0.0477
      8 H8          2.9114   24.0968    9.9962 H       1  lig         0.0465
      9 H9          5.0809   25.1801   15.5126 H       1  lig         0.0495
     10 H10         6.0014   26.0717   14.2999 H       1  lig         0.0527
     11 H11         4.3597   22.2156    9.0424 H       1  lig         0.0459
     12 H12         3.0503   21.4825    9.9930 H       1  lig         0.0459
     13 H13         4.6280   22.7110   14.5793 H       1  lig         0.0438
     14 H14         6.1249   23.5937   14.4827 H       1  lig         0.0425
     15 H15         4.0795   19.4715   10.0062 H       1  lig         0.0681
     16 H16         5.3294   20.0380    8.9610 H       1  lig         0.0571
     17 H17         6.3813   21.1878   13.8864 H       1  lig         0.0423
     18 H18         6.9385   22.3099   12.6772 H       1  lig         0.0489
     19 H19         3.2401   24.9083   14.0765 H       1  lig         0.0634
     20 H20         3.1254   23.1456   12.1562 H       1  lig         0.0564
     21 H21         5.5329   24.5361   12.4526 H       1  lig         0.0555
     22 H22         5.5274   22.7566   10.8027 H       1  lig         0.0551
     23 H23         3.3990   19.8775   12.1320 H       1  lig         0.0433
     24 H24         4.3325   19.8250   13.6035 H       1  lig         0.0424
     25 H25         3.2776   21.1984   13.2922 H       1  lig         0.0357
     26 H26         6.5967   18.4732   10.9133 H       1  lig         0.4072
     27 C1          8.2789   21.0685   10.2744 C.1     1  lig        -0.1335
     28 C2          7.0964   20.7400   10.6253 C.1     1  lig        -0.1688
     29 C3          3.5546   27.6932   12.8537 C.2     1  lig        -0.2674
     30 C4          3.5599   26.2658   12.6965 C.2     1  lig        -0.0292
     31 C5          4.0852   28.1827   14.1536 C.2     1  lig         0.5673
     32 C6          2.9107   25.7753   11.3798 C.3     1  lig        -0.0559
     33 C7          4.4325   27.2178   15.2781 C.3     1  lig        -0.1823
     34 C8          3.5936   24.5478   10.7146 C.3     1  lig        -0.0728
     35 C9          4.9938   25.8832   14.6817 C.3     1  lig        -0.0705
     36 C10         4.1272   21.6240    9.9309 C.3     1  lig        -0.0740
     37 C11         5.3666   23.1068   13.8781 C.3     1  lig        -0.0723
     38 C12         4.8337   20.2500    9.8991 C.3     1  lig        -0.0690
     39 C13         6.0382   21.9129   13.1481 C.3     1  lig        -0.0643
     40 C14         4.1158   25.2845   13.5405 C.3     1  lig        -0.0353
     41 C15         4.0794   23.5028   11.7620 C.3     1  lig        -0.0466
     42 C16         4.6468   24.0948   12.9217 C.3     1  lig        -0.0538
     43 C17         4.6164   22.2993   11.1999 C.3     1  lig        -0.0659
     44 C18         5.7832   20.2196   11.1082 C.3     1  lig         0.2372
     45 C19         5.1638   21.2002   12.0983 C.3     1  lig        -0.0680
     46 C20         3.9606   20.4900   12.8214 C.3     1  lig        -0.0802
     47 O1          4.1513   29.3571   14.2814 O.2     1  lig        -0.5348
     48 O2          5.9968   18.8816   11.5692 O.3     1  lig        -0.5805
@<TRIPOS>BOND
     1    31    47    2
     2    31    33    1
     3    29    31    1
     4    33    35    1
     5     5    33    1
     6     6    33    1
     7    29    30    2
     8     2    29    1
     9    30    32    1
    10    30    40    1
    11    32    34    1
    12     3    32    1
    13     4    32    1
    14    35    40    1
    15    40    42    1
    16    19    40    1
    17     9    35    1
    18    10    35    1
    19    41    42    1
    20    37    42    1
    21    21    42    1
    22    34    41    1
    23    41    43    1
    24    20    41    1
    25     7    34    1
    26     8    34    1
    27    37    39    1
    28    13    37    1
    29    14    37    1
    30    39    45    1
    31    17    39    1
    32    18    39    1
    33    43    45    1
    34    45    46    1
    35    44    45    1
    36    36    43    1
    37    22    43    1
    38    23    46    1
    39    24    46    1
    40    25    46    1
    41    44    48    1
    42    38    44    1
    43    28    44    1
    44    26    48    1
    45    36    38    1
    46    15    38    1
    47    16    38    1
    48    11    36    1
    49    12    36    1
    50    27    28    3
    51     1    27    1
@<TRIPOS>SUBSTRUCTURE
     1 lig         1 TEMP              0 ****  ****    0 ROOT


########## Name:		ligand
########## HA_RMSDs:		15.7575
########## HA_RMSDh:		15.6313
########## HA_RMSDm:		10.8749
########## Cluster Size:	5
##########    Grid Score:          -14.213326
##########      Grid_vdw:          -13.280097
##########       Grid_es:           -0.933230
##########    Int_energy:            3.010448

@<TRIPOS>MOLECULE
ligand
 48 51 1 0 0
SMALL
No Charge or Current Charge


@<TRIPOS>ATOM
      1 H1         17.5439   18.2193   37.6006 H       1  lig         0.1670
      2 H2         13.6104   25.6992   33.0605 H       1  lig         0.1473
      3 H3         15.3051   25.6077   34.7006 H       1  lig         0.0559
      4 H4         16.7346   25.8641   33.7275 H       1  lig         0.0575
      5 H5         14.9148   23.9493   29.7271 H       1  lig         0.0688
      6 H6         13.6509   22.7285   29.8645 H       1  lig         0.0740
      7 H7         16.1809   23.6506   35.7092 H       1  lig         0.0477
      8 H8         17.5321   24.7774   35.6786 H       1  lig         0.0465
      9 H9         15.9334   21.9524   30.6017 H       1  lig         0.0495
     10 H10        14.6913   21.7518   31.8385 H       1  lig         0.0527
     11 H11        18.6279   22.9910   37.1464 H       1  lig         0.0459
     12 H12        19.8684   23.6614   36.0658 H       1  lig         0.0459
     13 H13        18.3299   21.6394   31.7557 H       1  lig         0.0438
     14 H14        16.9179   20.6576   32.0236 H       1  lig         0.0425
     15 H15        21.2968   21.9738   36.5300 H       1  lig         0.0681
     16 H16        20.2281   21.3157   37.7134 H       1  lig         0.0571
     17 H17        18.9883   19.6548   32.9813 H       1  lig         0.0423
     18 H18        17.6810   19.8660   34.1118 H       1  lig         0.0489
     19 H19        16.8514   23.8336   31.6709 H       1  lig         0.0634
     20 H20        18.4191   23.7178   33.7534 H       1  lig         0.0564
     21 H21        16.1965   22.0217   33.7495 H       1  lig         0.0555
     22 H22        17.7486   21.7383   35.5932 H       1  lig         0.0551
     23 H23        21.2987   22.2379   34.2768 H       1  lig         0.0433
     24 H24        21.0426   21.0372   33.0389 H       1  lig         0.0424
     25 H25        20.1938   22.5757   32.9461 H       1  lig         0.0357
     26 H26        21.3856   19.3129   36.3490 H       1  lig         0.4072
     27 C1         18.1768   18.8517   37.0167 C.1     1  lig        -0.1335
     28 C2         18.9568   19.6104   36.3494 C.1     1  lig        -0.1688
     29 C3         14.1192   24.8964   32.5399 C.2     1  lig        -0.2674
     30 C4         15.4157   24.3866   32.8883 C.2     1  lig        -0.0292
     31 C5         13.5204   24.3022   31.3153 C.2     1  lig         0.5673
     32 C6         16.0621   25.0905   34.1059 C.3     1  lig        -0.0559
     33 C7         14.3175   23.3612   30.4237 C.3     1  lig        -0.1823
     34 C8         16.8802   24.1695   35.0538 C.3     1  lig        -0.0728
     35 C9         15.2856   22.4923   31.2953 C.3     1  lig        -0.0705
     36 C10        19.3045   22.7659   36.3187 C.3     1  lig        -0.0740
     37 C11        17.6385   21.2933   32.5278 C.3     1  lig        -0.0723
     38 C12        20.2772   21.6196   36.6762 C.3     1  lig        -0.0690
     39 C13        18.4272   20.4104   33.5317 C.3     1  lig        -0.0643
     40 C14        16.1309   23.3185   32.3123 C.3     1  lig        -0.0353
     41 C15        17.6914   23.0922   34.2750 C.3     1  lig        -0.0466
     42 C16        16.9774   22.5370   33.1799 C.3     1  lig        -0.0538
     43 C17        18.5509   22.2868   35.0907 C.3     1  lig        -0.0659
     44 C18        19.9820   20.4746   35.6932 C.3     1  lig         0.2372
     45 C19        19.3799   21.1687   34.4762 C.3     1  lig        -0.0680
     46 C20        20.5461   21.8061   33.6343 C.3     1  lig        -0.0802
     47 O1         12.4254   24.6590   31.0440 O.2     1  lig        -0.5348
     48 O2         21.1426   19.6673   35.4702 O.3     1  lig        -0.5805
@<TRIPOS>BOND
     1    31    47    2
     2    31    33    1
     3    29    31    1
     4    33    35    1
     5     5    33    1
     6     6    33    1
     7    29    30    2
     8     2    29    1
     9    30    32    1
    10    30    40    1
    11    32    34    1
    12     3    32    1
    13     4    32    1
    14    35    40    1
    15    40    42    1
    16    19    40    1
    17     9    35    1
    18    10    35    1
    19    41    42    1
    20    37    42    1
    21    21    42    1
    22    34    41    1
    23    41    43    1
    24    20    41    1
    25     7    34    1
    26     8    34    1
    27    37    39    1
    28    13    37    1
    29    14    37    1
    30    39    45    1
    31    17    39    1
    32    18    39    1
    33    43    45    1
    34    45    46    1
    35    44    45    1
    36    36    43    1
    37    22    43    1
    38    23    46    1
    39    24    46    1
    40    25    46    1
    41    44    48    1
    42    38    44    1
    43    28    44    1
    44    26    48    1
    45    36    38    1
    46    15    38    1
    47    16    38    1
    48    11    36    1
    49    12    36    1
    50    27    28    3
    51     1    27    1
@<TRIPOS>SUBSTRUCTURE
     1 lig         1 TEMP              0 ****  ****    0 ROOT


########## Name:		ligand
########## HA_RMSDs:		18.4798
########## HA_RMSDh:		18.3939
########## HA_RMSDm:		14.3015
########## Cluster Size:	1
##########    Grid Score:          -14.065958
##########      Grid_vdw:          -12.015207
##########       Grid_es:           -2.050751
##########    Int_energy:            3.216923

@<TRIPOS>MOLECULE
ligand
 48 51 1 0 0
SMALL
No Charge or Current Charge


@<TRIPOS>ATOM
      1 H1         10.1773   19.8325    9.3348 H       1  lig         0.1670
      2 H2          2.6674   15.6100    6.2248 H       1  lig         0.1473
      3 H3          3.2656   16.2294    8.4222 H       1  lig         0.0559
      4 H4          2.2464   17.6278    8.6710 H       1  lig         0.0575
      5 H5          2.0733   18.8959    4.0511 H       1  lig         0.0688
      6 H6          3.4092   18.4464    2.9928 H       1  lig         0.0740
      7 H7          5.2316   17.3813    9.0720 H       1  lig         0.0477
      8 H8          4.0119   17.8952   10.2314 H       1  lig         0.0465
      9 H9          3.9718   20.2346    4.6784 H       1  lig         0.0495
     10 H10         5.0466   18.8375    4.7531 H       1  lig         0.0527
     11 H11         6.0359   18.9333   11.4028 H       1  lig         0.0459
     12 H12         4.6578   20.0387   11.5887 H       1  lig         0.0459
     13 H13         4.3512   21.7084    6.8822 H       1  lig         0.0438
     14 H14         5.5898   20.9754    5.9035 H       1  lig         0.0425
     15 H15         6.0005   21.7245   12.2663 H       1  lig         0.0681
     16 H16         7.3879   20.6995   12.2639 H       1  lig         0.0571
     17 H17         6.4993   22.6119    7.5479 H       1  lig         0.0423
     18 H18         7.1923   21.0170    7.6355 H       1  lig         0.0489
     19 H19         2.8030   19.5785    6.6092 H       1  lig         0.0634
     20 H20         3.6818   19.9184    9.0424 H       1  lig         0.0564
     21 H21         5.5299   19.0224    7.1453 H       1  lig         0.0555
     22 H22         6.4231   19.5343    9.3427 H       1  lig         0.0551
     23 H23         4.5881   22.5894   10.7157 H       1  lig         0.0433
     24 H24         4.9722   23.5039    9.2819 H       1  lig         0.0424
     25 H25         3.8307   22.1687    9.1812 H       1  lig         0.0357
     26 H26         6.5212   23.5660   10.9505 H       1  lig         0.4072
     27 C1          9.3449   20.4388    9.6196 C.1     1  lig        -0.1335
     28 C2          8.3280   21.1317    9.9587 C.1     1  lig        -0.1688
     29 C3          2.9479   16.6066    5.9048 C.2     1  lig        -0.2674
     30 C4          3.2870   17.6858    6.7894 C.2     1  lig        -0.0292
     31 C5          2.9100   16.9666    4.4625 C.2     1  lig         0.5673
     32 C6          3.2211   17.3133    8.2903 C.3     1  lig        -0.0559
     33 C7          3.0486   18.4117    4.0058 C.3     1  lig        -0.1823
     34 C8          4.3142   17.9582    9.1876 C.3     1  lig        -0.0728
     35 C9          4.0278   19.1801    4.9560 C.3     1  lig        -0.0705
     36 C10         5.6440   19.9199   11.1448 C.3     1  lig        -0.0740
     37 C11         5.1866   21.0048    6.9106 C.3     1  lig        -0.0723
     38 C12         6.5779   21.0484   11.6372 C.3     1  lig        -0.0690
     39 C13         6.2841   21.5846    7.8427 C.3     1  lig        -0.0643
     40 C14         3.7142   18.9898    6.4716 C.3     1  lig        -0.0353
     41 C15         4.6219   19.4289    8.7785 C.3     1  lig        -0.0466
     42 C16         4.6442   19.6257    7.3721 C.3     1  lig        -0.0538
     43 C17         5.5414   20.1088    9.6417 C.3     1  lig        -0.0659
     44 C18         7.0593   21.7948   10.3820 C.3     1  lig         0.2372
     45 C19         5.9661   21.5403    9.3498 C.3     1  lig        -0.0680
     46 C20         4.7568   22.4998    9.6530 C.3     1  lig        -0.0802
     47 O1          2.6965   16.0801    3.7087 O.2     1  lig        -0.5348
     48 O2          7.3681   23.1613   10.6750 O.3     1  lig        -0.5805
@<TRIPOS>BOND
     1    31    47    2
     2    31    33    1
     3    29    31    1
     4    33    35    1
     5     5    33    1
     6     6    33    1
     7    29    30    2
     8     2    29    1
     9    30    32    1
    10    30    40    1
    11    32    34    1
    12     3    32    1
    13     4    32    1
    14    35    40    1
    15    40    42    1
    16    19    40    1
    17     9    35    1
    18    10    35    1
    19    41    42    1
    20    37    42    1
    21    21    42    1
    22    34    41    1
    23    41    43    1
    24    20    41    1
    25     7    34    1
    26     8    34    1
    27    37    39    1
    28    13    37    1
    29    14    37    1
    30    39    45    1
    31    17    39    1
    32    18    39    1
    33    43    45    1
    34    45    46    1
    35    44    45    1
    36    36    43    1
    37    22    43    1
    38    23    46    1
    39    24    46    1
    40    25    46    1
    41    44    48    1
    42    38    44    1
    43    28    44    1
    44    26    48    1
    45    36    38    1
    46    15    38    1
    47    16    38    1
    48    11    36    1
    49    12    36    1
    50    27    28    3
    51     1    27    1
@<TRIPOS>SUBSTRUCTURE
     1 lig         1 TEMP              0 ****  ****    0 ROOT


########## Name:		ligand
########## HA_RMSDs:		18.3825
########## HA_RMSDh:		17.9221
########## HA_RMSDm:		13.6327
########## Cluster Size:	2
##########    Grid Score:          -14.021108
##########      Grid_vdw:          -13.286676
##########       Grid_es:           -0.734431
##########    Int_energy:            3.006595

@<TRIPOS>MOLECULE
ligand
 48 51 1 0 0
SMALL
No Charge or Current Charge


@<TRIPOS>ATOM
      1 H1         34.0160   23.2746   32.6615 H       1  lig         0.1670
      2 H2         27.4924   16.2378   32.1117 H       1  lig         0.1473
      3 H3         27.9831   18.0011   30.6217 H       1  lig         0.0559
      4 H4         28.8894   17.1601   29.3857 H       1  lig         0.0575
      5 H5         30.6206   13.7780   32.3092 H       1  lig         0.0688
      6 H6         30.8129   14.1480   34.0217 H       1  lig         0.0740
      7 H7         29.6531   19.6579   30.9059 H       1  lig         0.0477
      8 H8         29.5476   19.4275   29.1646 H       1  lig         0.0465
      9 H9         32.4431   15.3364   32.5098 H       1  lig         0.0495
     10 H10        31.5143   16.4297   33.5368 H       1  lig         0.0527
     11 H11        31.0628   21.4889   29.1315 H       1  lig         0.0459
     12 H12        31.5801   20.3970   27.8293 H       1  lig         0.0459
     13 H13        33.6483   16.7869   30.6082 H       1  lig         0.0438
     14 H14        33.5332   17.1895   32.2975 H       1  lig         0.0425
     15 H15        33.5229   21.5169   27.5553 H       1  lig         0.0681
     16 H16        33.0590   22.7210   28.7000 H       1  lig         0.0571
     17 H17        35.1497   18.6332   31.0678 H       1  lig         0.0423
     18 H18        33.9020   19.4910   31.9276 H       1  lig         0.0489
     19 H19        31.1679   15.8623   30.6066 H       1  lig         0.0634
     20 H20        31.4663   18.0368   29.1959 H       1  lig         0.0564
     21 H21        31.5360   18.3157   31.9770 H       1  lig         0.0555
     22 H22        32.0303   20.3151   30.6939 H       1  lig         0.0551
     23 H23        34.0368   19.3077   27.6044 H       1  lig         0.0433
     24 H24        35.2104   18.4840   28.5962 H       1  lig         0.0424
     25 H25        33.5862   17.8249   28.4433 H       1  lig         0.0357
     26 H26        35.5745   20.7402   28.2119 H       1  lig         0.4072
     27 C1         34.0501   22.5996   31.8341 C.1     1  lig        -0.1335
     28 C2         34.0964   21.8233   30.8219 C.1     1  lig        -0.1688
     29 C3         28.5573   16.0517   32.1872 C.2     1  lig        -0.2674
     30 C4         29.5586   16.6818   31.3732 C.2     1  lig        -0.0292
     31 C5         29.0702   15.0144   33.1211 C.2     1  lig         0.5673
     32 C6         28.9900   17.6837   30.3394 C.3     1  lig        -0.0559
     33 C7         30.5194   14.5527   33.0691 C.3     1  lig        -0.1823
     34 C8         29.8511   18.9548   30.0970 C.3     1  lig        -0.0728
     35 C9         31.4480   15.7521   32.6806 C.3     1  lig        -0.0705
     36 C10        31.8746   20.8519   28.7727 C.3     1  lig        -0.0740
     37 C11        33.2849   17.5473   31.3035 C.3     1  lig        -0.0723
     38 C12        33.1822   21.6527   28.5809 C.3     1  lig        -0.0690
     39 C13        34.0826   18.8563   31.0590 C.3     1  lig        -0.0643
     40 C14        30.9596   16.5486   31.4320 C.3     1  lig        -0.0353
     41 C15        31.3769   18.6436   30.0997 C.3     1  lig        -0.0466
     42 C16        31.7548   17.7037   31.0952 C.3     1  lig        -0.0538
     43 C17        32.2142   19.7586   29.7701 C.3     1  lig        -0.0659
     44 C18        34.2103   21.0480   29.5514 C.3     1  lig         0.2372
     45 C19        33.7291   19.6171   29.7665 C.3     1  lig        -0.0680
     46 C20        34.1546   18.7525   28.5229 C.3     1  lig        -0.0802
     47 O1         28.2740   14.5268   33.8478 O.2     1  lig        -0.5348
     48 O2         35.5463   21.2161   29.0661 O.3     1  lig        -0.5805
@<TRIPOS>BOND
     1    31    47    2
     2    31    33    1
     3    29    31    1
     4    33    35    1
     5     5    33    1
     6     6    33    1
     7    29    30    2
     8     2    29    1
     9    30    32    1
    10    30    40    1
    11    32    34    1
    12     3    32    1
    13     4    32    1
    14    35    40    1
    15    40    42    1
    16    19    40    1
    17     9    35    1
    18    10    35    1
    19    41    42    1
    20    37    42    1
    21    21    42    1
    22    34    41    1
    23    41    43    1
    24    20    41    1
    25     7    34    1
    26     8    34    1
    27    37    39    1
    28    13    37    1
    29    14    37    1
    30    39    45    1
    31    17    39    1
    32    18    39    1
    33    43    45    1
    34    45    46    1
    35    44    45    1
    36    36    43    1
    37    22    43    1
    38    23    46    1
    39    24    46    1
    40    25    46    1
    41    44    48    1
    42    38    44    1
    43    28    44    1
    44    26    48    1
    45    36    38    1
    46    15    38    1
    47    16    38    1
    48    11    36    1
    49    12    36    1
    50    27    28    3
    51     1    27    1
@<TRIPOS>SUBSTRUCTURE
     1 lig         1 TEMP              0 ****  ****    0 ROOT


########## Name:		ligand
########## HA_RMSDs:		17.9177
########## HA_RMSDh:		17.7356
########## HA_RMSDm:		15.2578
########## Cluster Size:	3
##########    Grid Score:          -13.993160
##########      Grid_vdw:          -13.541678
##########       Grid_es:           -0.451481
##########    Int_energy:            3.010434

@<TRIPOS>MOLECULE
ligand
 48 51 1 0 0
SMALL
No Charge or Current Charge


@<TRIPOS>ATOM
      1 H1          5.2065   20.5743    5.9723 H       1  lig         0.1670
      2 H2          1.4118   26.5681   12.4304 H       1  lig         0.1473
      3 H3          1.6971   24.2258   12.4808 H       1  lig         0.0559
      4 H4          3.0772   24.0738   13.5431 H       1  lig         0.0575
      5 H5          4.9877   28.3255   12.4228 H       1  lig         0.0688
      6 H6          4.6508   29.0209   10.8386 H       1  lig         0.0740
      7 H7          2.6853   22.8934   10.7889 H       1  lig         0.0477
      8 H8          3.0680   22.0602   12.2907 H       1  lig         0.0465
      9 H9          6.1659   27.0065   10.7911 H       1  lig         0.0495
     10 H10         4.7398   26.8356    9.7665 H       1  lig         0.0527
     11 H11         3.8683   20.2328   10.6886 H       1  lig         0.0459
     12 H12         4.9783   20.2831   12.0746 H       1  lig         0.0459
     13 H13         7.3024   24.5966   11.0621 H       1  lig         0.0438
     14 H14         6.6768   25.2844    9.5907 H       1  lig         0.0425
     15 H15         6.5099   19.0220   10.9941 H       1  lig         0.0681
     16 H16         5.4534   18.7834    9.6516 H       1  lig         0.0571
     17 H17         8.0369   23.2338    9.1973 H       1  lig         0.0423
     18 H18         6.4250   23.1859    8.5407 H       1  lig         0.0489
     19 H19         5.2807   25.5949   12.4491 H       1  lig         0.0634
     20 H20         5.2476   22.9906   12.2937 H       1  lig         0.0564
     21 H21         4.5713   24.4030    9.9775 H       1  lig         0.0555
     22 H22         4.7411   21.9937    9.7437 H       1  lig         0.0551
     23 H23         7.6274   20.7647   11.9221 H       1  lig         0.0433
     24 H24         8.7223   21.8869   11.1595 H       1  lig         0.0424
     25 H25         7.4503   22.4938   12.2129 H       1  lig         0.0357
     26 H26         7.9652   19.1097    8.7591 H       1  lig         0.4072
     27 C1          5.6495   20.6247    6.9432 C.1     1  lig        -0.1335
     28 C2          6.1767   20.6465    8.1055 C.1     1  lig        -0.1688
     29 C3          2.4345   26.6502   12.0815 C.2     1  lig        -0.2674
     30 C4          3.3675   25.5605   12.0160 C.2     1  lig        -0.0292
     31 C5          2.9950   27.9781   11.7158 C.2     1  lig         0.5673
     32 C6          2.7897   24.2077   12.4975 C.3     1  lig        -0.0559
     33 C7          4.4850   28.1651   11.4691 C.3     1  lig        -0.1823
     34 C8          3.2680   22.9574   11.7076 C.3     1  lig        -0.0728
     35 C9          5.0816   26.8789   10.8047 C.3     1  lig        -0.0705
     36 C10         4.8929   20.4456   11.0022 C.3     1  lig        -0.0740
     37 C11         6.5765   24.4370   10.2612 C.3     1  lig        -0.0723
     38 C12         5.9116   19.5548   10.2561 C.3     1  lig        -0.0690
     39 C13         6.9854   23.1618    9.4762 C.3     1  lig        -0.0643
     40 C14         4.6896   25.5552   11.5300 C.3     1  lig        -0.0353
     41 C15         4.7715   23.0483   11.3123 C.3     1  lig        -0.0466
     42 C16         5.1635   24.3488   10.8974 C.3     1  lig        -0.0538
     43 C17         5.2945   21.8740   10.6798 C.3     1  lig        -0.0659
     44 C18         6.8122   20.5043    9.4488 C.3     1  lig         0.2372
     45 C19         6.7392   21.8265   10.2048 C.3     1  lig        -0.0680
     46 C20         7.6832   21.7392   11.4604 C.3     1  lig        -0.0802
     47 O1          2.2303   28.8808   11.6995 O.2     1  lig        -0.5348
     48 O2          8.1137   19.9434    9.2489 O.3     1  lig        -0.5805
@<TRIPOS>BOND
     1    31    47    2
     2    31    33    1
     3    29    31    1
     4    33    35    1
     5     5    33    1
     6     6    33    1
     7    29    30    2
     8     2    29    1
     9    30    32    1
    10    30    40    1
    11    32    34    1
    12     3    32    1
    13     4    32    1
    14    35    40    1
    15    40    42    1
    16    19    40    1
    17     9    35    1
    18    10    35    1
    19    41    42    1
    20    37    42    1
    21    21    42    1
    22    34    41    1
    23    41    43    1
    24    20    41    1
    25     7    34    1
    26     8    34    1
    27    37    39    1
    28    13    37    1
    29    14    37    1
    30    39    45    1
    31    17    39    1
    32    18    39    1
    33    43    45    1
    34    45    46    1
    35    44    45    1
    36    36    43    1
    37    22    43    1
    38    23    46    1
    39    24    46    1
    40    25    46    1
    41    44    48    1
    42    38    44    1
    43    28    44    1
    44    26    48    1
    45    36    38    1
    46    15    38    1
    47    16    38    1
    48    11    36    1
    49    12    36    1
    50    27    28    3
    51     1    27    1
@<TRIPOS>SUBSTRUCTURE
     1 lig         1 TEMP              0 ****  ****    0 ROOT


########## Name:		ligand
########## HA_RMSDs:		16.3261
########## HA_RMSDh:		16.2511
########## HA_RMSDm:		10.8026
########## Cluster Size:	3
##########    Grid Score:          -13.781659
##########      Grid_vdw:          -12.530169
##########       Grid_es:           -1.251490
##########    Int_energy:            3.277360

@<TRIPOS>MOLECULE
ligand
 48 51 1 0 0
SMALL
No Charge or Current Charge


@<TRIPOS>ATOM
      1 H1         13.1333   25.0171   31.9385 H       1  lig         0.1670
      2 H2         22.1914   25.0358   32.9066 H       1  lig         0.1473
      3 H3         20.5436   26.1491   34.1776 H       1  lig         0.0559
      4 H4         20.4957   25.1572   35.6164 H       1  lig         0.0575
      5 H5         21.8107   21.1031   33.4216 H       1  lig         0.0688
      6 H6         21.4507   20.9060   31.7074 H       1  lig         0.0740
      7 H7         18.1993   26.0274   33.8550 H       1  lig         0.0477
      8 H8         18.3978   26.2623   35.5876 H       1  lig         0.0465
      9 H9         19.4301   20.8212   33.2127 H       1  lig         0.0495
     10 H10        19.3064   22.0378   31.9409 H       1  lig         0.0527
     11 H11        15.8608   26.5825   35.5016 H       1  lig         0.0459
     12 H12        16.2614   25.7104   36.9965 H       1  lig         0.0459
     13 H13        17.5048   21.2876   35.0150 H       1  lig         0.0438
     14 H14        17.3332   21.3361   33.2836 H       1  lig         0.0425
     15 H15        14.1033   25.1318   37.3304 H       1  lig         0.0681
     16 H16        13.5810   26.0703   35.9805 H       1  lig         0.0571
     17 H17        15.1443   21.3828   34.4736 H       1  lig         0.0423
     18 H18        15.4072   22.6977   33.3630 H       1  lig         0.0489
     19 H19        19.8870   22.4319   34.8625 H       1  lig         0.0634
     20 H20        18.0769   23.9465   35.9750 H       1  lig         0.0564
     21 H21        17.8926   23.5815   33.2091 H       1  lig         0.0555
     22 H22        16.0766   24.8145   34.2436 H       1  lig         0.0551
     23 H23        15.3449   23.2610   37.6549 H       1  lig         0.0433
     24 H24        15.1521   21.6864   36.9317 H       1  lig         0.0424
     25 H25        16.7471   22.4269   36.9889 H       1  lig         0.0357
     26 H26        13.2556   23.0354   37.0355 H       1  lig         0.4072
     27 C1         13.3114   24.7059   32.9449 C.1     1  lig        -0.1335
     28 C2         13.5622   24.3380   34.1412 C.1     1  lig        -0.1688
     29 C3         21.5916   24.1363   32.9813 C.2     1  lig        -0.2674
     30 C4         20.4253   23.9959   33.8073 C.2     1  lig        -0.0292
     31 C5         22.0083   22.8990   32.2695 C.2     1  lig         0.5673
     32 C6         20.0703   25.2670   34.6160 C.3     1  lig        -0.0559
     33 C7         21.3389   21.5620   32.5528 C.3     1  lig        -0.1823
     34 C8         18.5513   25.5569   34.7729 C.3     1  lig        -0.0728
     35 C9         19.8216   21.7816   32.8713 C.3     1  lig        -0.0705
     36 C10        15.7514   25.6372   36.0383 C.3     1  lig        -0.0740
     37 C11        17.2230   21.9356   34.1815 C.3     1  lig        -0.0723
     38 C12        14.2647   25.2809   36.2635 C.3     1  lig        -0.0690
     39 C13        15.7205   22.2967   34.3278 C.3     1  lig        -0.0643
     40 C14        19.5546   22.8954   33.9295 C.3     1  lig        -0.0353
     41 C15        17.7216   24.2571   34.9899 C.3     1  lig        -0.0466
     42 C16        18.1627   23.1709   34.1882 C.3     1  lig        -0.0538
     43 C17        16.3298   24.4741   35.2520 C.3     1  lig        -0.0659
     44 C18        14.0136   23.9622   35.5135 C.3     1  lig         0.2372
     45 C19        15.3849   23.2981   35.4499 C.3     1  lig        -0.0680
     46 C20        15.6861   22.6347   36.8442 C.3     1  lig        -0.0802
     47 O1         22.9278   23.0054   31.5326 O.2     1  lig        -0.5348
     48 O2         12.9575   23.2108   36.1204 O.3     1  lig        -0.5805
@<TRIPOS>BOND
     1    31    47    2
     2    31    33    1
     3    29    31    1
     4    33    35    1
     5     5    33    1
     6     6    33    1
     7    29    30    2
     8     2    29    1
     9    30    32    1
    10    30    40    1
    11    32    34    1
    12     3    32    1
    13     4    32    1
    14    35    40    1
    15    40    42    1
    16    19    40    1
    17     9    35    1
    18    10    35    1
    19    41    42    1
    20    37    42    1
    21    21    42    1
    22    34    41    1
    23    41    43    1
    24    20    41    1
    25     7    34    1
    26     8    34    1
    27    37    39    1
    28    13    37    1
    29    14    37    1
    30    39    45    1
    31    17    39    1
    32    18    39    1
    33    43    45    1
    34    45    46    1
    35    44    45    1
    36    36    43    1
    37    22    43    1
    38    23    46    1
    39    24    46    1
    40    25    46    1
    41    44    48    1
    42    38    44    1
    43    28    44    1
    44    26    48    1
    45    36    38    1
    46    15    38    1
    47    16    38    1
    48    11    36    1
    49    12    36    1
    50    27    28    3
    51     1    27    1
@<TRIPOS>SUBSTRUCTURE
     1 lig         1 TEMP              0 ****  ****    0 ROOT


########## Name:		ligand
########## HA_RMSDs:		15.8873
########## HA_RMSDh:		15.7351
########## HA_RMSDm:		10.6623
########## Cluster Size:	3
##########    Grid Score:          -13.595458
##########      Grid_vdw:          -12.705373
##########       Grid_es:           -0.890085
##########    Int_energy:            3.013525

@<TRIPOS>MOLECULE
ligand
 48 51 1 0 0
SMALL
No Charge or Current Charge


@<TRIPOS>ATOM
      1 H1         16.6906   14.0869   34.5901 H       1  lig         0.1670
      2 H2         13.8357   23.2136   34.0025 H       1  lig         0.1473
      3 H3         14.6270   21.9582   35.8377 H       1  lig         0.0559
      4 H4         16.2625   22.5589   35.9812 H       1  lig         0.0575
      5 H5         16.7665   23.6285   31.3353 H       1  lig         0.0688
      6 H6         15.8217   22.7332   30.1468 H       1  lig         0.0740
      7 H7         15.3213   19.6931   35.7965 H       1  lig         0.0477
      8 H8         16.3137   20.4394   37.0432 H       1  lig         0.0465
      9 H9         17.6524   21.3929   31.2459 H       1  lig         0.0495
     10 H10        16.0561   20.6571   31.3991 H       1  lig         0.0527
     11 H11        16.9690   18.0110   37.5122 H       1  lig         0.0459
     12 H12        18.4080   19.0287   37.7344 H       1  lig         0.0459
     13 H13        19.3149   20.1607   32.9460 H       1  lig         0.0438
     14 H14        18.1382   19.3972   31.9155 H       1  lig         0.0425
     15 H15        19.7763   17.2310   37.7326 H       1  lig         0.0681
     16 H16        18.4412   16.1407   37.6659 H       1  lig         0.0571
     17 H17        19.7281   17.7725   32.9363 H       1  lig         0.0423
     18 H18        18.0443   17.4358   33.2245 H       1  lig         0.0489
     19 H19        17.6424   22.1437   33.4732 H       1  lig         0.0634
     20 H20        18.1332   20.6231   35.5359 H       1  lig         0.0564
     21 H21        16.4949   19.5530   33.5389 H       1  lig         0.0555
     22 H22        17.1076   18.0422   35.3362 H       1  lig         0.0551
     23 H23        20.7138   18.7740   36.3590 H       1  lig         0.0433
     24 H24        21.2531   18.5821   34.7122 H       1  lig         0.0424
     25 H25        20.2603   19.9686   35.1454 H       1  lig         0.0357
     26 H26        21.1733   16.6584   36.0236 H       1  lig         0.4072
     27 C1         17.3926   14.8517   34.8424 C.1     1  lig        -0.1335
     28 C2         18.2364   15.7486   35.1782 C.1     1  lig        -0.1688
     29 C3         14.6605   22.8185   33.4212 C.2     1  lig        -0.2674
     30 C4         15.7440   22.0439   33.9581 C.2     1  lig        -0.0292
     31 C5         14.7795   23.1447   31.9753 C.2     1  lig         0.5673
     32 C6         15.6494   21.8032   35.4842 C.3     1  lig        -0.0559
     33 C7         16.0459   22.8228   31.1952 C.3     1  lig        -0.1823
     34 C8         16.1264   20.4064   35.9714 C.3     1  lig        -0.0728
     35 C9         16.6786   21.4938   31.7294 C.3     1  lig        -0.0705
     36 C10        17.9681   18.2365   37.1321 C.3     1  lig        -0.0740
     37 C11        18.4335   19.5150   32.9531 C.3     1  lig        -0.0723
     38 C12        18.8812   16.9902   37.1606 C.3     1  lig        -0.0690
     39 C13        18.8531   18.1190   33.4868 C.3     1  lig        -0.0643
     40 C14        16.8240   21.4443   33.2812 C.3     1  lig        -0.0353
     41 C15        17.3813   19.9075   35.1959 C.3     1  lig        -0.0466
     42 C16        17.3351   20.2025   33.8074 C.3     1  lig        -0.0538
     43 C17        17.9310   18.6757   35.6791 C.3     1  lig        -0.0659
     44 C18        19.2644   16.6967   35.7006 C.3     1  lig         0.2372
     45 C19        19.1373   18.0449   34.9995 C.3     1  lig        -0.0680
     46 C20        20.4127   18.9045   35.3303 C.3     1  lig        -0.0802
     47 O1         13.8682   23.7265   31.4948 O.2     1  lig        -0.5348
     48 O2         20.5334   16.0402   35.6170 O.3     1  lig        -0.5805
@<TRIPOS>BOND
     1    31    47    2
     2    31    33    1
     3    29    31    1
     4    33    35    1
     5     5    33    1
     6     6    33    1
     7    29    30    2
     8     2    29    1
     9    30    32    1
    10    30    40    1
    11    32    34    1
    12     3    32    1
    13     4    32    1
    14    35    40    1
    15    40    42    1
    16    19    40    1
    17     9    35    1
    18    10    35    1
    19    41    42    1
    20    37    42    1
    21    21    42    1
    22    34    41    1
    23    41    43    1
    24    20    41    1
    25     7    34    1
    26     8    34    1
    27    37    39    1
    28    13    37    1
    29    14    37    1
    30    39    45    1
    31    17    39    1
    32    18    39    1
    33    43    45    1
    34    45    46    1
    35    44    45    1
    36    36    43    1
    37    22    43    1
    38    23    46    1
    39    24    46    1
    40    25    46    1
    41    44    48    1
    42    38    44    1
    43    28    44    1
    44    26    48    1
    45    36    38    1
    46    15    38    1
    47    16    38    1
    48    11    36    1
    49    12    36    1
    50    27    28    3
    51     1    27    1
@<TRIPOS>SUBSTRUCTURE
     1 lig         1 TEMP              0 ****  ****    0 ROOT


########## Name:		ligand
########## HA_RMSDs:		16.1774
########## HA_RMSDh:		15.9632
########## HA_RMSDm:		10.7181
########## Cluster Size:	1
##########    Grid Score:          -13.507924
##########      Grid_vdw:          -13.608737
##########       Grid_es:            0.100813
##########    Int_energy:            3.010448

@<TRIPOS>MOLECULE
ligand
 48 51 1 0 0
SMALL
No Charge or Current Charge


@<TRIPOS>ATOM
      1 H1         19.3851   21.1382   36.8854 H       1  lig         0.1670
      2 H2         13.3250   27.3587   32.8095 H       1  lig         0.1473
      3 H3         15.2018   26.2310   31.9284 H       1  lig         0.0559
      4 H4         14.4327   24.9773   30.9834 H       1  lig         0.0575
      5 H5         10.4985   24.6982   33.7086 H       1  lig         0.0688
      6 H6         10.6057   25.1479   35.4094 H       1  lig         0.0740
      7 H7         16.5884   24.6950   33.0825 H       1  lig         0.0477
      8 H8         16.6119   24.1455   31.4111 H       1  lig         0.0465
      9 H9         11.7813   22.9957   34.8250 H       1  lig         0.0495
     10 H10        12.8296   24.1754   35.6139 H       1  lig         0.0527
     11 H11        18.4585   22.6070   32.2881 H       1  lig         0.0459
     12 H12        17.4992   21.7026   31.0974 H       1  lig         0.0459
     13 H13        13.3195   21.0716   33.7740 H       1  lig         0.0438
     14 H14        13.4993   21.7943   35.3471 H       1  lig         0.0425
     15 H15        18.4008   19.7359   31.7481 H       1  lig         0.0681
     16 H16        19.4853   20.5244   32.8334 H       1  lig         0.0571
     17 H17        14.8891   19.7461   35.0599 H       1  lig         0.0423
     18 H18        15.7674   21.1711   35.5389 H       1  lig         0.0489
     19 H19        12.7129   23.4178   32.7086 H       1  lig         0.0634
     20 H20        15.0066   22.4723   31.9006 H       1  lig         0.0564
     21 H21        14.8935   23.4466   34.5188 H       1  lig         0.0555
     22 H22        16.9738   22.3795   33.8689 H       1  lig         0.0551
     23 H23        16.1596   19.4168   31.6006 H       1  lig         0.0433
     24 H24        15.0716   18.7609   32.7947 H       1  lig         0.0424
     25 H25        14.6424   20.2429   31.9489 H       1  lig         0.0357
     26 H26        17.0860   18.2108   34.5742 H       1  lig         0.4072
     27 C1         18.8244   20.8200   36.0334 C.1     1  lig        -0.1335
     28 C2         18.1874   20.4278   34.9992 C.1     1  lig        -0.1688
     29 C3         13.0020   26.4159   33.2352 C.2     1  lig        -0.2674
     30 C4         13.6103   25.1436   32.9640 C.2     1  lig        -0.0292
     31 C5         11.7925   26.3611   34.0984 C.2     1  lig         0.5673
     32 C6         14.8054   25.2140   31.9829 C.3     1  lig        -0.0559
     33 C7         11.1691   25.0322   34.5002 C.3     1  lig        -0.1823
     34 C8         15.9832   24.2486   32.2938 C.3     1  lig        -0.0728
     35 C9         12.2880   23.9534   34.6897 C.3     1  lig        -0.0705
     36 C10        17.7822   21.7608   32.1464 C.3     1  lig        -0.0740
     37 C11        14.0166   21.6240   34.4085 C.3     1  lig        -0.0723
     38 C12        18.4362   20.4314   32.5856 C.3     1  lig        -0.0690
     39 C13        15.2397   20.7140   34.7009 C.3     1  lig        -0.0643
     40 C14        13.3006   23.8809   33.5060 C.3     1  lig        -0.0353
     41 C15        15.4910   22.8604   32.7994 C.3     1  lig        -0.0466
     42 C16        14.3853   22.9476   33.6865 C.3     1  lig        -0.0538
     43 C17        16.5300   21.8935   32.9949 C.3     1  lig        -0.0659
     44 C18        17.5843   19.8882   33.7448 C.3     1  lig         0.2372
     45 C19        16.2068   20.5025   33.5200 C.3     1  lig        -0.0680
     46 C20        15.4743   19.6911   32.3886 C.3     1  lig        -0.0802
     47 O1         11.3112   27.4021   34.3891 O.2     1  lig        -0.5348
     48 O2         17.6529   18.4604   33.8170 O.3     1  lig        -0.5805
@<TRIPOS>BOND
     1    31    47    2
     2    31    33    1
     3    29    31    1
     4    33    35    1
     5     5    33    1
     6     6    33    1
     7    29    30    2
     8     2    29    1
     9    30    32    1
    10    30    40    1
    11    32    34    1
    12     3    32    1
    13     4    32    1
    14    35    40    1
    15    40    42    1
    16    19    40    1
    17     9    35    1
    18    10    35    1
    19    41    42    1
    20    37    42    1
    21    21    42    1
    22    34    41    1
    23    41    43    1
    24    20    41    1
    25     7    34    1
    26     8    34    1
    27    37    39    1
    28    13    37    1
    29    14    37    1
    30    39    45    1
    31    17    39    1
    32    18    39    1
    33    43    45    1
    34    45    46    1
    35    44    45    1
    36    36    43    1
    37    22    43    1
    38    23    46    1
    39    24    46    1
    40    25    46    1
    41    44    48    1
    42    38    44    1
    43    28    44    1
    44    26    48    1
    45    36    38    1
    46    15    38    1
    47    16    38    1
    48    11    36    1
    49    12    36    1
    50    27    28    3
    51     1    27    1
@<TRIPOS>SUBSTRUCTURE
     1 lig         1 TEMP              0 ****  ****    0 ROOT


########## Name:		ligand
########## HA_RMSDs:		17.9141
########## HA_RMSDh:		17.5004
########## HA_RMSDm:		12.0232
########## Cluster Size:	4
##########    Grid Score:          -13.485236
##########      Grid_vdw:          -12.663275
##########       Grid_es:           -0.821961
##########    Int_energy:            3.008205

@<TRIPOS>MOLECULE
ligand
 48 51 1 0 0
SMALL
No Charge or Current Charge


@<TRIPOS>ATOM
      1 H1         27.6798   21.4525   34.2497 H       1  lig         0.1670
      2 H2         22.4834   13.4555   33.1237 H       1  lig         0.1473
      3 H3         23.9012   14.5959   31.6204 H       1  lig         0.0559
      4 H4         25.3231   13.5795   31.6562 H       1  lig         0.0575
      5 H5         24.6544   12.0142   36.1378 H       1  lig         0.0688
      6 H6         23.7673   13.0302   37.2725 H       1  lig         0.0740
      7 H7         25.1359   16.5668   32.0733 H       1  lig         0.0477
      8 H8         26.1176   15.6853   30.9091 H       1  lig         0.0465
      9 H9         26.0541   13.8995   36.6639 H       1  lig         0.0495
     10 H10        24.7598   15.0598   36.3622 H       1  lig         0.0527
     11 H11        27.4531   17.8674   30.8786 H       1  lig         0.0459
     12 H12        28.5960   16.5135   30.7506 H       1  lig         0.0459
     13 H13        28.2663   14.7642   35.4265 H       1  lig         0.0438
     14 H14        27.1550   15.7321   36.3525 H       1  lig         0.0425
     15 H15        30.3564   17.8536   31.2080 H       1  lig         0.0681
     16 H16        29.3598   19.2616   31.2099 H       1  lig         0.0571
     17 H17        29.2723   16.9336   35.8209 H       1  lig         0.0423
     18 H18        27.8173   17.7482   35.3198 H       1  lig         0.0489
     19 H19        26.2683   13.3767   34.3823 H       1  lig         0.0634
     20 H20        27.5122   14.8739   32.6449 H       1  lig         0.0564
     21 H21        25.8615   16.1797   34.4853 H       1  lig         0.0555
     22 H22        27.1687   17.6107   33.0253 H       1  lig         0.0551
     23 H23        30.5894   15.9980   32.4924 H       1  lig         0.0433
     24 H24        30.8416   15.8894   34.2141 H       1  lig         0.0424
     25 H25        29.6240   14.8759   33.4486 H       1  lig         0.0357
     26 H26        31.1951   19.4687   33.1597 H       1  lig         0.4072
     27 C1         28.1817   20.5442   33.9956 C.1     1  lig        -0.1335
     28 C2         28.8008   19.4782   33.6646 C.1     1  lig        -0.1688
     29 C3         23.2582   13.5543   33.8749 C.2     1  lig        -0.2674
     30 C4         24.5856   14.0412   33.6233 C.2     1  lig        -0.0292
     31 C5         23.0159   13.0840   35.2646 C.2     1  lig         0.5673
     32 C6         24.8440   14.4298   32.1475 C.3     1  lig        -0.0559
     33 C7         24.1531   12.9729   36.2698 C.3     1  lig        -0.1823
     34 C8         25.7478   15.6760   31.9329 C.3     1  lig        -0.0728
     35 C9         25.1958   14.1151   36.0245 C.3     1  lig        -0.0705
     36 C10        28.2707   17.3414   31.3771 C.3     1  lig        -0.0740
     37 C11        27.5989   15.6273   35.3678 C.3     1  lig        -0.0723
     38 C12        29.4630   18.2829   31.6596 C.3     1  lig        -0.0690
     39 C13        28.4568   16.8926   35.0986 C.3     1  lig        -0.0643
     40 C14        25.6371   14.2564   34.5355 C.3     1  lig        -0.0353
     41 C15        26.9205   15.7379   32.9555 C.3     1  lig        -0.0466
     42 C16        26.5405   15.3482   34.2674 C.3     1  lig        -0.0538
     43 C17        27.8499   16.8057   32.7341 C.3     1  lig        -0.0659
     44 C18        29.6283   18.3309   33.1876 C.3     1  lig         0.2372
     45 C19        29.0287   17.0156   33.6730 C.3     1  lig        -0.0680
     46 C20        30.0777   15.8678   33.4342 C.3     1  lig        -0.0802
     47 O1         21.9121   12.7386   35.5137 O.2     1  lig        -0.5348
     48 O2         30.9849   18.5996   33.5565 O.3     1  lig        -0.5805
@<TRIPOS>BOND
     1    31    47    2
     2    31    33    1
     3    29    31    1
     4    33    35    1
     5     5    33    1
     6     6    33    1
     7    29    30    2
     8     2    29    1
     9    30    32    1
    10    30    40    1
    11    32    34    1
    12     3    32    1
    13     4    32    1
    14    35    40    1
    15    40    42    1
    16    19    40    1
    17     9    35    1
    18    10    35    1
    19    41    42    1
    20    37    42    1
    21    21    42    1
    22    34    41    1
    23    41    43    1
    24    20    41    1
    25     7    34    1
    26     8    34    1
    27    37    39    1
    28    13    37    1
    29    14    37    1
    30    39    45    1
    31    17    39    1
    32    18    39    1
    33    43    45    1
    34    45    46    1
    35    44    45    1
    36    36    43    1
    37    22    43    1
    38    23    46    1
    39    24    46    1
    40    25    46    1
    41    44    48    1
    42    38    44    1
    43    28    44    1
    44    26    48    1
    45    36    38    1
    46    15    38    1
    47    16    38    1
    48    11    36    1
    49    12    36    1
    50    27    28    3
    51     1    27    1
@<TRIPOS>SUBSTRUCTURE
     1 lig         1 TEMP              0 ****  ****    0 ROOT


########## Name:		ligand
########## HA_RMSDs:		16.4281
########## HA_RMSDh:		16.1688
########## HA_RMSDm:		11.0651
########## Cluster Size:	5
##########    Grid Score:          -13.377298
##########      Grid_vdw:          -12.667693
##########       Grid_es:           -0.709605
##########    Int_energy:            3.007212

@<TRIPOS>MOLECULE
ligand
 48 51 1 0 0
SMALL
No Charge or Current Charge


@<TRIPOS>ATOM
      1 H1         25.3165   22.3442   35.8001 H       1  lig         0.1670
      2 H2         21.3693   13.6074   36.4355 H       1  lig         0.1473
      3 H3         20.5567   15.7170   37.1135 H       1  lig         0.0559
      4 H4         19.4085   16.0641   35.8418 H       1  lig         0.0575
      5 H5         21.6885   13.5387   32.4645 H       1  lig         0.0688
      6 H6         23.4309   13.3105   32.6010 H       1  lig         0.0740
      7 H7         21.6642   17.7967   36.8631 H       1  lig         0.0477
      8 H8         19.9526   18.1878   36.7457 H       1  lig         0.0465
      9 H9         22.7301   15.6642   32.0311 H       1  lig         0.0495
     10 H10        23.7431   15.5637   33.4721 H       1  lig         0.0527
     11 H11        20.8306   20.5883   36.8598 H       1  lig         0.0459
     12 H12        19.4594   20.5502   35.7311 H       1  lig         0.0459
     13 H13        21.6285   18.1038   31.9440 H       1  lig         0.0438
     14 H14        23.2818   17.7301   32.3394 H       1  lig         0.0425
     15 H15        19.9738   22.5926   34.9140 H       1  lig         0.0681
     16 H16        21.2403   22.8001   36.0666 H       1  lig         0.0571
     17 H17        22.9073   20.1626   31.9493 H       1  lig         0.0423
     18 H18        23.6243   19.7647   33.4852 H       1  lig         0.0489
     19 H19        20.7746   15.9924   33.2932 H       1  lig         0.0634
     20 H20        20.0951   18.2644   34.3814 H       1  lig         0.0564
     21 H21        22.7812   17.5172   34.5897 H       1  lig         0.0555
     22 H22        22.2239   19.7283   35.4196 H       1  lig         0.0551
     23 H23        19.5737   21.2504   33.1293 H       1  lig         0.0433
     24 H24        20.5760   20.9699   31.7306 H       1  lig         0.0424
     25 H25        19.8611   19.6022   32.5756 H       1  lig         0.0357
     26 H26        20.9104   22.9391   32.8108 H       1  lig         0.4072
     27 C1         24.3786   22.1647   35.3209 C.1     1  lig        -0.1335
     28 C2         23.2449   21.9835   34.7630 C.1     1  lig        -0.1688
     29 C3         21.6547   14.0592   35.4927 C.2     1  lig        -0.2674
     30 C4         21.3054   15.3906   35.0835 C.2     1  lig        -0.0292
     31 C5         22.3842   13.2609   34.4720 C.2     1  lig         0.5673
     32 C6         20.4596   16.1664   36.1221 C.3     1  lig        -0.0559
     33 C7         22.5739   13.7779   33.0533 C.3     1  lig        -0.1823
     34 C8         20.7756   17.6835   36.2424 C.3     1  lig        -0.0728
     35 C9         22.7516   15.3335   33.0715 C.3     1  lig        -0.0705
     36 C10        20.5309   20.7178   35.8172 C.3     1  lig        -0.0740
     37 C11        22.3852   18.2039   32.7258 C.3     1  lig        -0.0723
     38 C12        20.8825   22.1296   35.2965 C.3     1  lig        -0.0690
     39 C13        22.6934   19.7129   32.9191 C.3     1  lig        -0.0643
     40 C14        21.6718   16.0814   33.9119 C.3     1  lig        -0.0353
     41 C15        21.0743   18.3358   34.8602 C.3     1  lig        -0.0466
     42 C16        21.8533   17.5090   34.0077 C.3     1  lig        -0.0538
     43 C17        21.2625   19.7556   34.8983 C.3     1  lig        -0.0659
     44 C18        21.8857   21.9335   34.1478 C.3     1  lig         0.2372
     45 C19        21.5966   20.5283   33.6309 C.3     1  lig        -0.0680
     46 C20        20.3164   20.5832   32.7181 C.3     1  lig        -0.0802
     47 O1         22.7397   12.1837   34.8083 O.2     1  lig        -0.5348
     48 O2         21.8062   23.0019   33.1988 O.3     1  lig        -0.5805
@<TRIPOS>BOND
     1    31    47    2
     2    31    33    1
     3    29    31    1
     4    33    35    1
     5     5    33    1
     6     6    33    1
     7    29    30    2
     8     2    29    1
     9    30    32    1
    10    30    40    1
    11    32    34    1
    12     3    32    1
    13     4    32    1
    14    35    40    1
    15    40    42    1
    16    19    40    1
    17     9    35    1
    18    10    35    1
    19    41    42    1
    20    37    42    1
    21    21    42    1
    22    34    41    1
    23    41    43    1
    24    20    41    1
    25     7    34    1
    26     8    34    1
    27    37    39    1
    28    13    37    1
    29    14    37    1
    30    39    45    1
    31    17    39    1
    32    18    39    1
    33    43    45    1
    34    45    46    1
    35    44    45    1
    36    36    43    1
    37    22    43    1
    38    23    46    1
    39    24    46    1
    40    25    46    1
    41    44    48    1
    42    38    44    1
    43    28    44    1
    44    26    48    1
    45    36    38    1
    46    15    38    1
    47    16    38    1
    48    11    36    1
    49    12    36    1
    50    27    28    3
    51     1    27    1
@<TRIPOS>SUBSTRUCTURE
     1 lig         1 TEMP              0 ****  ****    0 ROOT


########## Name:		ligand
########## HA_RMSDs:		18.0052
########## HA_RMSDh:		17.9161
########## HA_RMSDm:		14.6582
########## Cluster Size:	1
##########    Grid Score:          -13.369843
##########      Grid_vdw:          -11.256585
##########       Grid_es:           -2.113257
##########    Int_energy:            3.270225

@<TRIPOS>MOLECULE
ligand
 48 51 1 0 0
SMALL
No Charge or Current Charge


@<TRIPOS>ATOM
      1 H1          9.6004   21.4301   11.2283 H       1  lig         0.1670
      2 H2          5.1465   15.6262    5.7938 H       1  lig         0.1473
      3 H3          4.4160   16.7066    7.7609 H       1  lig         0.0559
      4 H4          3.3835   17.9535    7.1010 H       1  lig         0.0575
      5 H5          5.7413   18.3482    2.9456 H       1  lig         0.0688
      6 H6          7.4528   17.9303    2.8932 H       1  lig         0.0740
      7 H7          5.6611   18.2429    9.0661 H       1  lig         0.0477
      8 H8          3.9887   18.7589    9.2476 H       1  lig         0.0465
      9 H9          6.9365   20.0518    4.1536 H       1  lig         0.0495
     10 H10         7.8372   18.8715    5.1067 H       1  lig         0.0527
     11 H11         4.9989   20.2851   11.0356 H       1  lig         0.0459
     12 H12         3.7111   21.1809   10.2020 H       1  lig         0.0459
     13 H13         5.9922   21.9304    5.8125 H       1  lig         0.0438
     14 H14         7.5880   21.2360    5.8390 H       1  lig         0.0425
     15 H15         4.4037   23.1455   11.0764 H       1  lig         0.0681
     16 H16         5.5956   22.3616   12.0461 H       1  lig         0.0571
     17 H17         7.3886   23.2559    7.2845 H       1  lig         0.0423
     18 H18         7.9700   21.8269    8.0917 H       1  lig         0.0489
     19 H19         4.9198   19.5736    5.2621 H       1  lig         0.0634
     20 H20         4.3025   20.4666    7.6347 H       1  lig         0.0564
     21 H21         6.9175   19.5459    7.2723 H       1  lig         0.0555
     22 H22         6.4365   20.5670    9.4204 H       1  lig         0.0551
     23 H23         4.0511   23.4971    8.8630 H       1  lig         0.0433
     24 H24         5.1313   24.1934    7.6849 H       1  lig         0.0424
     25 H25         4.2776   22.7020    7.3067 H       1  lig         0.0357
     26 H26         5.4725   24.7803    9.9472 H       1  lig         0.4072
     27 C1          8.7100   21.9417   10.9335 C.1     1  lig        -0.1335
     28 C2          7.6349   22.5212   10.5627 C.1     1  lig        -0.1688
     29 C3          5.5245   16.5822    5.4508 C.2     1  lig        -0.2674
     30 C4          5.2855   17.8391    6.1029 C.2     1  lig        -0.0292
     31 C5          6.2752   16.6730    4.1704 C.2     1  lig         0.5673
     32 C6          4.4164   17.7306    7.3791 C.3     1  lig        -0.0559
     33 C7          6.5955   18.0193    3.5371 C.3     1  lig        -0.1823
     34 C8          4.8135   18.6832    8.5413 C.3     1  lig        -0.0728
     35 C9          6.8645   19.0838    4.6535 C.3     1  lig        -0.0705
     36 C10         4.7820   21.1389   10.3894 C.3     1  lig        -0.0740
     37 C11         6.6963   21.3796    6.4407 C.3     1  lig        -0.0723
     38 C12         5.2536   22.4662   11.0250 C.3     1  lig        -0.0690
     39 C13         7.0800   22.2758    7.6486 C.3     1  lig        -0.0643
     40 C14         5.7747   19.1169    5.7684 C.3     1  lig        -0.0353
     41 C15         5.2479   20.0886    8.0304 C.3     1  lig        -0.0466
     42 C16         6.0343   20.0364    6.8489 C.3     1  lig        -0.0538
     43 C17         5.5177   21.0427    9.0647 C.3     1  lig        -0.0659
     44 C18         6.3220   23.0455   10.0830 C.3     1  lig         0.2372
     45 C19         5.9865   22.4487    8.7205 C.3     1  lig        -0.0680
     46 C20         4.7797   23.2492    8.1057 C.3     1  lig        -0.0802
     47 O1          6.5407   15.6457    3.6471 O.2     1  lig        -0.5348
     48 O2          6.3741   24.4731   10.1698 O.3     1  lig        -0.5805
@<TRIPOS>BOND
     1    31    47    2
     2    31    33    1
     3    29    31    1
     4    33    35    1
     5     5    33    1
     6     6    33    1
     7    29    30    2
     8     2    29    1
     9    30    32    1
    10    30    40    1
    11    32    34    1
    12     3    32    1
    13     4    32    1
    14    35    40    1
    15    40    42    1
    16    19    40    1
    17     9    35    1
    18    10    35    1
    19    41    42    1
    20    37    42    1
    21    21    42    1
    22    34    41    1
    23    41    43    1
    24    20    41    1
    25     7    34    1
    26     8    34    1
    27    37    39    1
    28    13    37    1
    29    14    37    1
    30    39    45    1
    31    17    39    1
    32    18    39    1
    33    43    45    1
    34    45    46    1
    35    44    45    1
    36    36    43    1
    37    22    43    1
    38    23    46    1
    39    24    46    1
    40    25    46    1
    41    44    48    1
    42    38    44    1
    43    28    44    1
    44    26    48    1
    45    36    38    1
    46    15    38    1
    47    16    38    1
    48    11    36    1
    49    12    36    1
    50    27    28    3
    51     1    27    1
@<TRIPOS>SUBSTRUCTURE
     1 lig         1 TEMP              0 ****  ****    0 ROOT


########## Name:		ligand
########## HA_RMSDs:		15.3663
########## HA_RMSDh:		15.3346
########## HA_RMSDm:		9.5197
########## Cluster Size:	1
##########    Grid Score:          -13.343012
##########      Grid_vdw:          -13.363563
##########       Grid_es:            0.020551
##########    Int_energy:            3.017503

@<TRIPOS>MOLECULE
ligand
 48 51 1 0 0
SMALL
No Charge or Current Charge


@<TRIPOS>ATOM
      1 H1         22.4462   24.1409   31.7098 H       1  lig         0.1670
      2 H2         25.7809   15.1934   32.2882 H       1  lig         0.1473
      3 H3         25.9934   17.0212   33.7662 H       1  lig         0.0559
      4 H4         24.8427   16.5892   35.0094 H       1  lig         0.0575
      5 H5         21.9576   14.0856   32.1129 H       1  lig         0.0688
      6 H6         21.9113   14.4902   30.3979 H       1  lig         0.0740
      7 H7         25.0657   19.1816   33.4724 H       1  lig         0.0477
      8 H8         25.0840   18.9392   35.2151 H       1  lig         0.0465
      9 H9         20.8520   16.2126   31.9036 H       1  lig         0.0495
     10 H10        22.1190   16.8713   30.8674 H       1  lig         0.0527
     11 H11        24.4529   21.4187   35.2354 H       1  lig         0.0459
     12 H12        23.5690   20.6086   36.5462 H       1  lig         0.0459
     13 H13        20.2864   18.0209   33.7964 H       1  lig         0.0438
     14 H14        20.5374   18.3405   32.1040 H       1  lig         0.0425
     15 H15        22.1892   22.3772   36.8148 H       1  lig         0.0681
     16 H16        23.0663   23.3122   35.6608 H       1  lig         0.0571
     17 H17        19.5854   20.2927   33.3255 H       1  lig         0.0423
     18 H18        21.0603   20.6145   32.4578 H       1  lig         0.0489
     19 H19        22.2389   16.2334   33.8011 H       1  lig         0.0634
     20 H20        22.7837   18.3697   35.1965 H       1  lig         0.0564
     21 H21        22.8125   18.6372   32.4136 H       1  lig         0.0555
     22 H22        23.1094   20.6839   33.6829 H       1  lig         0.0551
     23 H23        20.8839   20.5219   36.7824 H       1  lig         0.0433
     24 H24        19.4831   20.1924   35.7982 H       1  lig         0.0424
     25 H25        20.7421   18.9732   35.9536 H       1  lig         0.0357
     26 H26        19.5039   22.6783   34.6376 H       1  lig         0.4072
     27 C1         22.1262   23.5437   32.5358 C.1     1  lig        -0.1335
     28 C2         21.7594   22.8562   33.5469 C.1     1  lig        -0.1688
     29 C3         24.7236   15.4200   32.2155 C.2     1  lig        -0.2674
     30 C4         24.0350   16.3846   33.0264 C.2     1  lig        -0.0292
     31 C5         23.8553   14.6450   31.2899 C.2     1  lig         0.5673
     32 C6         24.9420   17.1065   34.0521 C.3     1  lig        -0.0559
     33 C7         22.3390   14.7610   31.3472 C.3     1  lig        -0.1823
     34 C8         24.6216   18.6092   34.2865 C.3     1  lig        -0.0728
     35 C9         21.9296   16.2236   31.7284 C.3     1  lig        -0.0705
     36 C10        23.4628   21.1350   35.5999 C.3     1  lig        -0.0740
     37 C11        20.9058   18.5851   33.0950 C.3     1  lig        -0.0723
     38 C12        22.5518   22.3690   35.7878 C.3     1  lig        -0.0690
     39 C13        20.6583   20.0993   33.3312 C.3     1  lig        -0.0643
     40 C14        22.6861   16.7863   32.9705 C.3     1  lig        -0.0353
     41 C15        23.0905   18.8931   34.2882 C.3     1  lig        -0.0466
     42 C16        22.3836   18.1575   33.3001 C.3     1  lig        -0.0538
     43 C17        22.7339   20.2427   34.6110 C.3     1  lig        -0.0659
     44 C18        21.3681   22.1881   34.8232 C.3     1  lig         0.2372
     45 C19        21.2766   20.6799   34.6177 C.3     1  lig        -0.0680
     46 C20        20.5628   20.0458   35.8681 C.3     1  lig        -0.0802
     47 O1         24.4076   13.8899   30.5656 O.2     1  lig        -0.5348
     48 O2         20.1947   22.8481   35.3091 O.3     1  lig        -0.5805
@<TRIPOS>BOND
     1    31    47    2
     2    31    33    1
     3    29    31    1
     4    33    35    1
     5     5    33    1
     6     6    33    1
     7    29    30    2
     8     2    29    1
     9    30    32    1
    10    30    40    1
    11    32    34    1
    12     3    32    1
    13     4    32    1
    14    35    40    1
    15    40    42    1
    16    19    40    1
    17     9    35    1
    18    10    35    1
    19    41    42    1
    20    37    42    1
    21    21    42    1
    22    34    41    1
    23    41    43    1
    24    20    41    1
    25     7    34    1
    26     8    34    1
    27    37    39    1
    28    13    37    1
    29    14    37    1
    30    39    45    1
    31    17    39    1
    32    18    39    1
    33    43    45    1
    34    45    46    1
    35    44    45    1
    36    36    43    1
    37    22    43    1
    38    23    46    1
    39    24    46    1
    40    25    46    1
    41    44    48    1
    42    38    44    1
    43    28    44    1
    44    26    48    1
    45    36    38    1
    46    15    38    1
    47    16    38    1
    48    11    36    1
    49    12    36    1
    50    27    28    3
    51     1    27    1
@<TRIPOS>SUBSTRUCTURE
     1 lig         1 TEMP              0 ****  ****    0 ROOT


########## Name:		ligand
########## HA_RMSDs:		16.1236
########## HA_RMSDh:		16.0089
########## HA_RMSDm:		11.0112
########## Cluster Size:	3
##########    Grid Score:          -12.993208
##########      Grid_vdw:          -13.459411
##########       Grid_es:            0.466202
##########    Int_energy:            3.008644

@<TRIPOS>MOLECULE
ligand
 48 51 1 0 0
SMALL
No Charge or Current Charge


@<TRIPOS>ATOM
      1 H1         19.1600   13.0575   33.9289 H       1  lig         0.1670
      2 H2         21.1273   22.1818   36.1783 H       1  lig         0.1473
      3 H3         21.8110   20.1630   37.1919 H       1  lig         0.0559
      4 H4         23.4539   20.0292   36.6097 H       1  lig         0.0575
      5 H5         22.6844   22.4049   32.5176 H       1  lig         0.0688
      6 H6         21.0655   22.4008   31.8206 H       1  lig         0.0740
      7 H7         21.2422   17.9734   36.4874 H       1  lig         0.0477
      8 H8         22.8475   17.8112   37.1896 H       1  lig         0.0465
      9 H9         22.2646   20.1874   31.6828 H       1  lig         0.0495
     10 H10        20.6949   20.0859   32.4819 H       1  lig         0.0527
     11 H11        22.3538   15.3153   36.9197 H       1  lig         0.0459
     12 H12        24.0729   15.5846   36.5618 H       1  lig         0.0459
     13 H13        23.6017   17.9166   32.1604 H       1  lig         0.0438
     14 H14        21.9205   18.0552   31.7316 H       1  lig         0.0425
     15 H15        24.2812   13.5359   35.6326 H       1  lig         0.0681
     16 H16        22.6658   13.1111   36.0634 H       1  lig         0.0571
     17 H17        22.7613   15.7131   31.6015 H       1  lig         0.0423
     18 H18        21.3659   15.9394   32.6179 H       1  lig         0.0489
     19 H19        23.4335   20.0508   33.7174 H       1  lig         0.0634
     20 H20        23.8322   17.8338   35.0341 H       1  lig         0.0564
     21 H21        21.2834   18.2192   33.9513 H       1  lig         0.0555
     22 H22        21.6870   16.0595   34.9816 H       1  lig         0.0551
     23 H23        25.2777   15.0048   34.2197 H       1  lig         0.0433
     24 H24        25.0126   15.2231   32.5104 H       1  lig         0.0424
     25 H25        25.0587   16.6278   33.5690 H       1  lig         0.0357
     26 H26        24.4868   13.1752   33.3432 H       1  lig         0.4072
     27 C1         20.1795   13.3769   33.9340 C.1     1  lig        -0.1335
     28 C2         21.4066   13.7272   33.9612 C.1     1  lig        -0.1688
     29 C3         21.3776   21.7443   35.2190 C.2     1  lig        -0.2674
     30 C4         22.0550   20.4904   35.0423 C.2     1  lig        -0.0292
     31 C5         21.1048   22.4918   33.9628 C.2     1  lig         0.5673
     32 C6         22.4180   19.7792   36.3682 C.3     1  lig        -0.0559
     33 C7         21.6688   22.0255   32.6285 C.3     1  lig        -0.1823
     34 C8         22.2927   18.2300   36.3519 C.3     1  lig        -0.0728
     35 C9         21.7171   20.4609   32.5870 C.3     1  lig        -0.0705
     36 C10        23.1183   15.2769   36.1401 C.3     1  lig        -0.0740
     37 C11        22.5900   17.6818   32.4997 C.3     1  lig        -0.0723
     38 C12        23.2453   13.8591   35.5388 C.3     1  lig        -0.0690
     39 C13        22.4364   16.1380   32.5514 C.3     1  lig        -0.0643
     40 C14        22.3732   19.8171   33.8467 C.3     1  lig        -0.0353
     41 C15        22.7628   17.6139   35.0012 C.3     1  lig        -0.0466
     42 C16        22.3647   18.3750   33.8700 C.3     1  lig        -0.0538
     43 C17        22.7741   16.1815   34.9702 C.3     1  lig        -0.0659
     44 C18        22.8748   13.9814   34.0514 C.3     1  lig         0.2372
     45 C19        23.1763   15.4358   33.7064 C.3     1  lig        -0.0680
     46 C20        24.7280   15.5907   33.4984 C.3     1  lig        -0.0802
     47 O1         20.4906   23.4967   34.0764 O.2     1  lig        -0.5348
     48 O2         23.5312   12.9802   33.2671 O.3     1  lig        -0.5805
@<TRIPOS>BOND
     1    31    47    2
     2    31    33    1
     3    29    31    1
     4    33    35    1
     5     5    33    1
     6     6    33    1
     7    29    30    2
     8     2    29    1
     9    30    32    1
    10    30    40    1
    11    32    34    1
    12     3    32    1
    13     4    32    1
    14    35    40    1
    15    40    42    1
    16    19    40    1
    17     9    35    1
    18    10    35    1
    19    41    42    1
    20    37    42    1
    21    21    42    1
    22    34    41    1
    23    41    43    1
    24    20    41    1
    25     7    34    1
    26     8    34    1
    27    37    39    1
    28    13    37    1
    29    14    37    1
    30    39    45    1
    31    17    39    1
    32    18    39    1
    33    43    45    1
    34    45    46    1
    35    44    45    1
    36    36    43    1
    37    22    43    1
    38    23    46    1
    39    24    46    1
    40    25    46    1
    41    44    48    1
    42    38    44    1
    43    28    44    1
    44    26    48    1
    45    36    38    1
    46    15    38    1
    47    16    38    1
    48    11    36    1
    49    12    36    1
    50    27    28    3
    51     1    27    1
@<TRIPOS>SUBSTRUCTURE
     1 lig         1 TEMP              0 ****  ****    0 ROOT


########## Name:		ligand
########## HA_RMSDs:		17.4406
########## HA_RMSDh:		17.4406
########## HA_RMSDm:		13.4029
########## Cluster Size:	3
##########    Grid Score:          -12.873784
##########      Grid_vdw:          -12.709043
##########       Grid_es:           -0.164742
##########    Int_energy:            3.218405

@<TRIPOS>MOLECULE
ligand
 48 51 1 0 0
SMALL
No Charge or Current Charge


@<TRIPOS>ATOM
      1 H1          6.5764   25.9438   11.1688 H       1  lig         0.1670
      2 H2          9.5775   22.1345    3.1434 H       1  lig         0.1473
      3 H3         10.0348   21.4316    5.3496 H       1  lig         0.0559
      4 H4          8.9392   20.0787    5.5097 H       1  lig         0.0575
      5 H5          5.6745   21.7667    2.4317 H       1  lig         0.0688
      6 H6          5.5458   23.5086    2.1952 H       1  lig         0.0740
      7 H7          9.2660   22.4608    7.3406 H       1  lig         0.0477
      8 H8          9.3817   20.7511    7.7403 H       1  lig         0.0465
      9 H9          4.7317   22.6991    4.4397 H       1  lig         0.0495
     10 H10         5.9751   23.9457    4.5527 H       1  lig         0.0527
     11 H11         8.9546   21.6140   10.1108 H       1  lig         0.0459
     12 H12         8.0985   20.0695    9.9180 H       1  lig         0.0459
     13 H13         4.4416   21.5770    6.8541 H       1  lig         0.0438
     14 H14         4.6033   23.2769    6.5174 H       1  lig         0.0425
     15 H15         6.8863   20.4174   11.7924 H       1  lig         0.0681
     16 H16         7.7563   21.8613   12.1582 H       1  lig         0.0571
     17 H17         3.8953   22.8191    8.8623 H       1  lig         0.0423
     18 H18         5.3297   23.7931    8.7027 H       1  lig         0.0489
     19 H19         6.2401   20.9868    5.0035 H       1  lig         0.0634
     20 H20         7.0471   20.4842    7.4333 H       1  lig         0.0564
     21 H21         6.9105   23.1727    6.6783 H       1  lig         0.0555
     22 H22         7.4553   22.7466    9.0042 H       1  lig         0.0551
     23 H23         5.4370   19.7284   10.1888 H       1  lig         0.0433
     24 H24         3.9514   20.4777    9.6683 H       1  lig         0.0424
     25 H25         5.1159   19.9311    8.4679 H       1  lig         0.0357
     26 H26         5.1239   22.3000   12.7430 H       1  lig         0.4072
     27 C1          6.4574   24.8823   11.1441 C.1     1  lig        -0.1335
     28 C2          6.2781   23.6191   11.1048 C.1     1  lig        -0.1688
     29 C3          8.5394   22.2494    3.4323 C.2     1  lig        -0.2674
     30 C4          7.9865   21.8230    4.6872 C.2     1  lig        -0.0292
     31 C5          7.5515   22.7997    2.4667 C.2     1  lig         0.5673
     32 C6          9.0153   21.1614    5.6357 C.3     1  lig        -0.0559
     33 C7          6.0567   22.7380    2.7454 C.3     1  lig        -0.1823
     34 C8          8.8331   21.4797    7.1461 C.3     1  lig        -0.0728
     35 C9          5.7926   22.9021    4.2800 C.3     1  lig        -0.0705
     36 C10         7.9717   21.1383   10.0768 C.3     1  lig        -0.0740
     37 C11         5.0557   22.4559    7.0641 C.3     1  lig        -0.0723
     38 C12         7.1774   21.3824   11.3797 C.3     1  lig        -0.0690
     39 C13         4.9471   22.7792    8.5784 C.3     1  lig        -0.0643
     40 C14         6.6735   21.9763    5.1737 C.3     1  lig        -0.0353
     41 C15         7.3333   21.5304    7.5621 C.3     1  lig        -0.0466
     42 C16         6.5049   22.1586    6.5944 C.3     1  lig        -0.0538
     43 C17         7.1087   21.7096    8.9657 C.3     1  lig        -0.0659
     44 C18         5.9209   22.1749   10.9825 C.3     1  lig         0.2372
     45 C19         5.6950   21.8138    9.5183 C.3     1  lig        -0.0680
     46 C20         5.0180   20.3953    9.4502 C.3     1  lig        -0.0802
     47 O1          7.9915   23.2174    1.4509 O.2     1  lig        -0.5348
     48 O2          4.8396   21.9238   11.8860 O.3     1  lig        -0.5805
@<TRIPOS>BOND
     1    31    47    2
     2    31    33    1
     3    29    31    1
     4    33    35    1
     5     5    33    1
     6     6    33    1
     7    29    30    2
     8     2    29    1
     9    30    32    1
    10    30    40    1
    11    32    34    1
    12     3    32    1
    13     4    32    1
    14    35    40    1
    15    40    42    1
    16    19    40    1
    17     9    35    1
    18    10    35    1
    19    41    42    1
    20    37    42    1
    21    21    42    1
    22    34    41    1
    23    41    43    1
    24    20    41    1
    25     7    34    1
    26     8    34    1
    27    37    39    1
    28    13    37    1
    29    14    37    1
    30    39    45    1
    31    17    39    1
    32    18    39    1
    33    43    45    1
    34    45    46    1
    35    44    45    1
    36    36    43    1
    37    22    43    1
    38    23    46    1
    39    24    46    1
    40    25    46    1
    41    44    48    1
    42    38    44    1
    43    28    44    1
    44    26    48    1
    45    36    38    1
    46    15    38    1
    47    16    38    1
    48    11    36    1
    49    12    36    1
    50    27    28    3
    51     1    27    1
@<TRIPOS>SUBSTRUCTURE
     1 lig         1 TEMP              0 ****  ****    0 ROOT


########## Name:		ligand
########## HA_RMSDs:		15.9459
########## HA_RMSDh:		15.6831
########## HA_RMSDm:		9.7192
########## Cluster Size:	2
##########    Grid Score:          -12.839083
##########      Grid_vdw:          -11.858611
##########       Grid_es:           -0.980472
##########    Int_energy:            3.009739

@<TRIPOS>MOLECULE
ligand
 48 51 1 0 0
SMALL
No Charge or Current Charge


@<TRIPOS>ATOM
      1 H1         21.5308   14.5860   30.0279 H       1  lig         0.1670
      2 H2         14.6751   17.7195   35.9668 H       1  lig         0.1473
      3 H3         16.6148   16.4427   36.3882 H       1  lig         0.0559
      4 H4         17.6696   17.6476   37.0895 H       1  lig         0.0575
      5 H5         15.7400   21.3616   34.7517 H       1  lig         0.0688
      6 H6         14.9612   21.0785   33.1961 H       1  lig         0.0740
      7 H7         18.2285   15.7684   34.7896 H       1  lig         0.0477
      8 H8         19.1388   15.9706   36.2818 H       1  lig         0.0465
      9 H9         17.4715   20.8485   33.1615 H       1  lig         0.0495
     10 H10        16.6279   19.4168   32.5684 H       1  lig         0.0527
     11 H11        20.9993   14.8757   34.9084 H       1  lig         0.0459
     12 H12        21.7309   16.1189   35.9453 H       1  lig         0.0459
     13 H13        20.0325   20.1975   33.5972 H       1  lig         0.0438
     14 H14        19.0700   19.7406   32.2209 H       1  lig         0.0425
     15 H15        23.6665   16.0622   34.7816 H       1  lig         0.0681
     16 H16        23.1121   14.7501   33.8087 H       1  lig         0.0571
     17 H17        21.4964   19.2714   31.9020 H       1  lig         0.0423
     18 H18        20.4458   17.9006   31.6812 H       1  lig         0.0489
     19 H19        17.9742   19.8352   35.2219 H       1  lig         0.0634
     20 H20        19.8933   18.1031   35.5752 H       1  lig         0.0564
     21 H21        18.3370   17.8118   33.2708 H       1  lig         0.0555
     22 H22        20.2436   16.3230   33.4630 H       1  lig         0.0551
     23 H23        23.1290   18.2486   35.0607 H       1  lig         0.0433
     24 H24        23.0019   19.5017   33.8552 H       1  lig         0.0424
     25 H25        21.7268   19.3160   35.0534 H       1  lig         0.0357
     26 H26        24.3718   17.6876   33.3459 H       1  lig         0.4072
     27 C1         21.8080   15.2287   30.8349 C.1     1  lig        -0.1335
     28 C2         22.1671   15.9717   31.8088 C.1     1  lig        -0.1688
     29 C3         15.2858   18.3859   35.3691 C.2     1  lig        -0.2674
     30 C4         16.7182   18.3293   35.2848 C.2     1  lig        -0.0292
     31 C5         14.6587   19.5154   34.6329 C.2     1  lig         0.5673
     32 C6         17.3550   17.2074   36.1402 C.3     1  lig        -0.0559
     33 C7         15.5041   20.6102   33.9983 C.3     1  lig        -0.1823
     34 C8         18.5888   16.5039   35.5086 C.3     1  lig        -0.0728
     35 C9         16.8462   20.0060   33.4639 C.3     1  lig        -0.0705
     36 C10        21.5287   15.8314   34.9156 C.3     1  lig        -0.0740
     37 C11        19.6511   19.3363   33.0434 C.3     1  lig        -0.0723
     38 C12        22.8543   15.7520   34.1254 C.3     1  lig        -0.0690
     39 C13        20.8574   18.5694   32.4382 C.3     1  lig        -0.0643
     40 C14        17.5902   19.1091   34.5001 C.3     1  lig        -0.0353
     41 C15        19.5115   17.5011   34.7476 C.3     1  lig        -0.0466
     42 C16        18.7918   18.4791   34.0109 C.3     1  lig        -0.0538
     43 C17        20.7219   16.9262   34.2404 C.3     1  lig        -0.0659
     44 C18        22.7260   16.7441   32.9575 C.3     1  lig         0.2372
     45 C19        21.7071   17.7690   33.4441 C.3     1  lig        -0.0680
     46 C20        22.4281   18.7669   34.4236 C.3     1  lig        -0.0802
     47 O1         13.4759   19.5464   34.6337 O.2     1  lig        -0.5348
     48 O2         24.0056   17.2433   32.5552 O.3     1  lig        -0.5805
@<TRIPOS>BOND
     1    31    47    2
     2    31    33    1
     3    29    31    1
     4    33    35    1
     5     5    33    1
     6     6    33    1
     7    29    30    2
     8     2    29    1
     9    30    32    1
    10    30    40    1
    11    32    34    1
    12     3    32    1
    13     4    32    1
    14    35    40    1
    15    40    42    1
    16    19    40    1
    17     9    35    1
    18    10    35    1
    19    41    42    1
    20    37    42    1
    21    21    42    1
    22    34    41    1
    23    41    43    1
    24    20    41    1
    25     7    34    1
    26     8    34    1
    27    37    39    1
    28    13    37    1
    29    14    37    1
    30    39    45    1
    31    17    39    1
    32    18    39    1
    33    43    45    1
    34    45    46    1
    35    44    45    1
    36    36    43    1
    37    22    43    1
    38    23    46    1
    39    24    46    1
    40    25    46    1
    41    44    48    1
    42    38    44    1
    43    28    44    1
    44    26    48    1
    45    36    38    1
    46    15    38    1
    47    16    38    1
    48    11    36    1
    49    12    36    1
    50    27    28    3
    51     1    27    1
@<TRIPOS>SUBSTRUCTURE
     1 lig         1 TEMP              0 ****  ****    0 ROOT


########## Name:		ligand
########## HA_RMSDs:		17.2413
########## HA_RMSDh:		17.2413
########## HA_RMSDm:		14.0968
########## Cluster Size:	3
##########    Grid Score:          -12.823304
##########      Grid_vdw:          -11.488824
##########       Grid_es:           -1.334480
##########    Int_energy:            3.166504

@<TRIPOS>MOLECULE
ligand
 48 51 1 0 0
SMALL
No Charge or Current Charge


@<TRIPOS>ATOM
      1 H1          6.9292   28.9099   15.2564 H       1  lig         0.1670
      2 H2          7.2133   23.2506    7.6876 H       1  lig         0.1473
      3 H3          7.2496   22.6448    9.9684 H       1  lig         0.0559
      4 H4          5.5939   22.1397   10.2128 H       1  lig         0.0575
      5 H5          3.7384   25.0125    6.8532 H       1  lig         0.0688
      6 H6          4.5842   26.5039    6.4446 H       1  lig         0.0740
      7 H7          7.2103   24.1264   11.8171 H       1  lig         0.0477
      8 H8          6.3744   22.6857   12.3844 H       1  lig         0.0465
      9 H9          3.5008   26.5110    8.7210 H       1  lig         0.0495
     10 H10         5.2266   26.8750    8.7647 H       1  lig         0.0527
     11 H11         6.5359   23.8812   14.6408 H       1  lig         0.0459
     12 H12         4.9683   23.0493   14.5626 H       1  lig         0.0459
     13 H13         2.6863   25.9889   11.2183 H       1  lig         0.0438
     14 H14         3.7497   27.2759   10.7260 H       1  lig         0.0425
     15 H15         4.1819   24.1967   16.3428 H       1  lig         0.0681
     16 H16         5.7090   24.9554   16.6032 H       1  lig         0.0571
     17 H17         2.9502   27.5269   13.0728 H       1  lig         0.0423
     18 H18         4.6805   27.5318   12.8796 H       1  lig         0.0489
     19 H19         3.8296   24.3213    9.5096 H       1  lig         0.0634
     20 H20         4.2722   23.7130   12.0080 H       1  lig         0.0564
     21 H21         5.6222   25.9406   10.9919 H       1  lig         0.0555
     22 H22         5.8860   25.5287   13.3687 H       1  lig         0.0551
     23 H23         2.5631   24.2541   14.7543 H       1  lig         0.0433
     24 H24         1.7247   25.6368   14.1027 H       1  lig         0.0424
     25 H25         2.3746   24.4203   13.0101 H       1  lig         0.0357
     26 H26         2.6916   25.8247   16.3274 H       1  lig         0.4072
     27 C1          6.2557   28.0811   15.2878 C.1     1  lig        -0.1335
     28 C2          5.4214   27.1158   15.3246 C.1     1  lig        -0.1688
     29 C3          6.4148   23.9452    7.9207 C.2     1  lig        -0.2674
     30 C4          5.7419   24.0245    9.1868 C.2     1  lig        -0.0292
     31 C5          5.8745   24.8437    6.8663 C.2     1  lig         0.5673
     32 C6          6.2550   23.0094   10.2367 C.3     1  lig        -0.0559
     33 C7          4.5973   25.6412    7.0873 C.3     1  lig        -0.1823
     34 C8          6.3057   23.5297   11.7004 C.3     1  lig        -0.0728
     35 C9          4.4955   26.0810    8.5867 C.3     1  lig        -0.0705
     36 C10         5.4529   24.0221   14.6121 C.3     1  lig        -0.0740
     37 C11         3.6863   26.4030   11.3678 C.3     1  lig        -0.0723
     38 C12         4.9479   24.7951   15.8512 C.3     1  lig        -0.0690
     39 C13         3.8014   26.8875   12.8380 C.3     1  lig        -0.0643
     40 C14         4.7386   24.9221    9.6013 C.3     1  lig        -0.0353
     41 C15         5.0888   24.4374   12.0469 C.3     1  lig        -0.0466
     42 C16         4.7245   25.3129   10.9895 C.3     1  lig        -0.0538
     43 C17         5.0257   24.8545   13.4162 C.3     1  lig        -0.0659
     44 C18         4.3269   26.1007   15.3276 C.3     1  lig         0.2372
     45 C19         3.9126   25.7736   13.8970 C.3     1  lig        -0.0680
     46 C20         2.5662   24.9608   13.9381 C.3     1  lig        -0.0802
     47 O1          6.4527   24.8439    5.8341 O.2     1  lig        -0.5348
     48 O2          3.3025   26.5789   16.2053 O.3     1  lig        -0.5805
@<TRIPOS>BOND
     1    31    47    2
     2    31    33    1
     3    29    31    1
     4    33    35    1
     5     5    33    1
     6     6    33    1
     7    29    30    2
     8     2    29    1
     9    30    32    1
    10    30    40    1
    11    32    34    1
    12     3    32    1
    13     4    32    1
    14    35    40    1
    15    40    42    1
    16    19    40    1
    17     9    35    1
    18    10    35    1
    19    41    42    1
    20    37    42    1
    21    21    42    1
    22    34    41    1
    23    41    43    1
    24    20    41    1
    25     7    34    1
    26     8    34    1
    27    37    39    1
    28    13    37    1
    29    14    37    1
    30    39    45    1
    31    17    39    1
    32    18    39    1
    33    43    45    1
    34    45    46    1
    35    44    45    1
    36    36    43    1
    37    22    43    1
    38    23    46    1
    39    24    46    1
    40    25    46    1
    41    44    48    1
    42    38    44    1
    43    28    44    1
    44    26    48    1
    45    36    38    1
    46    15    38    1
    47    16    38    1
    48    11    36    1
    49    12    36    1
    50    27    28    3
    51     1    27    1
@<TRIPOS>SUBSTRUCTURE
     1 lig         1 TEMP              0 ****  ****    0 ROOT


########## Name:		ligand
########## HA_RMSDs:		17.2341
########## HA_RMSDh:		16.9562
########## HA_RMSDm:		11.6934
########## Cluster Size:	2
##########    Grid Score:          -12.693821
##########      Grid_vdw:          -12.642621
##########       Grid_es:           -0.051200
##########    Int_energy:            3.003749

@<TRIPOS>MOLECULE
ligand
 48 51 1 0 0
SMALL
No Charge or Current Charge


@<TRIPOS>ATOM
      1 H1         28.7620   19.5589   37.3019 H       1  lig         0.1670
      2 H2         22.4517   16.0563   30.9232 H       1  lig         0.1473
      3 H3         24.4183   17.3200   30.5984 H       1  lig         0.0559
      4 H4         25.5350   16.0823   30.0717 H       1  lig         0.0575
      5 H5         23.4116   12.5057   32.4553 H       1  lig         0.0688
      6 H6         22.4950   12.8789   33.9138 H       1  lig         0.0740
      7 H7         25.8798   18.1056   32.2899 H       1  lig         0.0477
      8 H8         26.9214   17.8182   30.9012 H       1  lig         0.0465
      9 H9         24.9914   13.1309   34.1593 H       1  lig         0.0495
     10 H10        24.0944   14.5898   34.5831 H       1  lig         0.0527
     11 H11        28.6478   19.0115   32.3647 H       1  lig         0.0459
     12 H12        29.4729   17.7121   31.4778 H       1  lig         0.0459
     13 H13        27.5797   13.7742   33.9153 H       1  lig         0.0438
     14 H14        26.4959   14.3081   35.1682 H       1  lig         0.0425
     15 H15        31.2956   17.8568   32.8047 H       1  lig         0.0681
     16 H16        30.6525   19.2225   33.6396 H       1  lig         0.0571
     17 H17        28.8826   14.8159   35.6736 H       1  lig         0.0423
     18 H18        27.8130   16.1892   35.7127 H       1  lig         0.0489
     19 H19        25.6754   14.0178   32.0928 H       1  lig         0.0634
     20 H20        27.6142   15.7400   31.8052 H       1  lig         0.0564
     21 H21        25.8558   16.1618   33.9376 H       1  lig         0.0555
     22 H22        27.7684   17.6510   33.8244 H       1  lig         0.0551
     23 H23        30.7908   15.6530   32.6163 H       1  lig         0.0433
     24 H24        30.5586   14.4765   33.8818 H       1  lig         0.0424
     25 H25        29.3963   14.5768   32.5647 H       1  lig         0.0357
     26 H26        31.1928   16.3040   35.9175 H       1  lig         0.4072
     27 C1         29.0985   18.8946   36.5358 C.1     1  lig        -0.1335
     28 C2         29.5341   18.1203   35.6193 C.1     1  lig        -0.1688
     29 C3         23.0077   15.4333   31.6140 C.2     1  lig        -0.2674
     30 C4         24.4265   15.5067   31.8229 C.2     1  lig        -0.0292
     31 C5         22.3195   14.3468   32.3604 C.2     1  lig         0.5673
     32 C6         25.1351   16.5782   30.9594 C.3     1  lig        -0.0559
     33 C7         23.1069   13.3006   33.1358 C.3     1  lig        -0.1823
     34 C8         26.3051   17.3296   31.6538 C.3     1  lig        -0.0728
     35 C9         24.3939   13.9478   33.7496 C.3     1  lig        -0.0705
     36 C10        29.1780   18.0616   32.4651 C.3     1  lig        -0.0740
     37 C11        27.1479   14.6651   34.3774 C.3     1  lig        -0.0723
     38 C12        30.4268   18.2007   33.3646 C.3     1  lig        -0.0690
     39 C13        28.2928   15.4779   35.0392 C.3     1  lig        -0.0643
     40 C14        25.2261   14.7844   32.7302 C.3     1  lig        -0.0353
     41 C15        27.1580   16.3893   32.5557 C.3     1  lig        -0.0466
     42 C16        26.3772   15.4533   33.2848 C.3     1  lig        -0.0538
     43 C17        28.3163   17.0045   33.1325 C.3     1  lig        -0.0659
     44 C18        30.1961   17.2824   34.5762 C.3     1  lig         0.2372
     45 C19        29.2278   16.2209   34.0654 C.3     1  lig        -0.0680
     46 C20        30.0366   15.1698   33.2192 C.3     1  lig        -0.0802
     47 O1         21.1417   14.3063   32.2553 O.2     1  lig        -0.5348
     48 O2         31.4354   16.8196   35.1224 O.3     1  lig        -0.5805
@<TRIPOS>BOND
     1    31    47    2
     2    31    33    1
     3    29    31    1
     4    33    35    1
     5     5    33    1
     6     6    33    1
     7    29    30    2
     8     2    29    1
     9    30    32    1
    10    30    40    1
    11    32    34    1
    12     3    32    1
    13     4    32    1
    14    35    40    1
    15    40    42    1
    16    19    40    1
    17     9    35    1
    18    10    35    1
    19    41    42    1
    20    37    42    1
    21    21    42    1
    22    34    41    1
    23    41    43    1
    24    20    41    1
    25     7    34    1
    26     8    34    1
    27    37    39    1
    28    13    37    1
    29    14    37    1
    30    39    45    1
    31    17    39    1
    32    18    39    1
    33    43    45    1
    34    45    46    1
    35    44    45    1
    36    36    43    1
    37    22    43    1
    38    23    46    1
    39    24    46    1
    40    25    46    1
    41    44    48    1
    42    38    44    1
    43    28    44    1
    44    26    48    1
    45    36    38    1
    46    15    38    1
    47    16    38    1
    48    11    36    1
    49    12    36    1
    50    27    28    3
    51     1    27    1
@<TRIPOS>SUBSTRUCTURE
     1 lig         1 TEMP              0 ****  ****    0 ROOT


########## Name:		ligand
########## HA_RMSDs:		18.9999
########## HA_RMSDh:		18.9999
########## HA_RMSDm:		14.4127
########## Cluster Size:	1
##########    Grid Score:          -12.675159
##########      Grid_vdw:          -12.105712
##########       Grid_es:           -0.569447
##########    Int_energy:            3.005378

@<TRIPOS>MOLECULE
ligand
 48 51 1 0 0
SMALL
No Charge or Current Charge


@<TRIPOS>ATOM
      1 H1         35.5456   15.5700   33.6007 H       1  lig         0.1670
      2 H2         35.1219   12.3708   24.5397 H       1  lig         0.1473
      3 H3         36.0453   11.3863   26.4757 H       1  lig         0.0559
      4 H4         34.8191   10.2061   26.8754 H       1  lig         0.0575
      5 H5         31.1732   12.6737   24.9777 H       1  lig         0.0688
      6 H6         31.2899   14.4298   24.8829 H       1  lig         0.0740
      7 H7         36.0532   12.3127   28.6566 H       1  lig         0.0477
      8 H8         35.9754   10.5736   28.9129 H       1  lig         0.0465
      9 H9         31.0046   13.5296   27.2204 H       1  lig         0.0495
     10 H10        32.4280   14.5550   27.0328 H       1  lig         0.0527
     11 H11        36.3826   11.2461   31.3477 H       1  lig         0.0459
     12 H12        35.2507    9.8770   31.3302 H       1  lig         0.0459
     13 H13        31.2069   12.2252   29.5507 H       1  lig         0.0438
     14 H14        31.5626   13.9062   29.2731 H       1  lig         0.0425
     15 H15        34.6885   10.2127   33.4924 H       1  lig         0.0681
     16 H16        35.8640   11.4632   33.6656 H       1  lig         0.0571
     17 H17        31.4669   13.3254   31.6945 H       1  lig         0.0423
     18 H18        32.9472   14.0816   31.1763 H       1  lig         0.0489
     19 H19        32.2874   11.5599   27.2274 H       1  lig         0.0634
     20 H20        33.6383   10.6966   29.2859 H       1  lig         0.0564
     21 H21        33.7683   13.4373   28.7488 H       1  lig         0.0555
     22 H22        34.8561   12.6995   30.7886 H       1  lig         0.0551
     23 H23        32.7529    9.9180   32.3462 H       1  lig         0.0433
     24 H24        31.3356   10.9331   32.3223 H       1  lig         0.0424
     25 H25        32.0059   10.3408   30.8071 H       1  lig         0.0357
     26 H26        32.6329   11.1130   34.1591 H       1  lig         0.4072
     27 C1         35.0534   14.6440   33.3967 C.1     1  lig        -0.1335
     28 C2         34.4814   13.5227   33.1847 C.1     1  lig        -0.1688
     29 C3         34.2419   12.6119   25.1243 C.2     1  lig        -0.2674
     30 C4         33.9946   12.1492   26.4611 C.2     1  lig        -0.0292
     31 C5         33.1360   13.4010   24.5195 C.2     1  lig         0.5673
     32 C6         35.1149   11.2463   27.0317 C.3     1  lig        -0.0559
     33 C7         31.7910   13.5388   25.2181 C.3     1  lig        -0.1823
     34 C8         35.4189   11.4335   28.5444 C.3     1  lig        -0.0728
     35 C9         31.9976   13.5844   26.7696 C.3     1  lig        -0.0705
     36 C10        35.3617   10.9310   31.5761 C.3     1  lig        -0.0740
     37 C11        31.9989   12.9748   29.6194 C.3     1  lig        -0.0723
     38 C12        35.0169   11.1592   33.0651 C.3     1  lig        -0.0690
     39 C13        32.3743   13.1554   31.1147 C.3     1  lig        -0.0643
     40 C14        32.9167   12.4497   27.3166 C.3     1  lig        -0.0353
     41 C15        34.1270   11.6687   29.3815 C.3     1  lig        -0.0466
     42 C16        33.1849   12.5104   28.7324 C.3     1  lig        -0.0538
     43 C17        34.3370   11.7364   30.7972 C.3     1  lig        -0.0659
     44 C18        33.8579   12.1694   33.0945 C.3     1  lig         0.2372
     45 C19        33.1738   11.9973   31.7426 C.3     1  lig        -0.0680
     46 C20        32.2680   10.7123   31.7987 C.3     1  lig        -0.0802
     47 O1         33.3417   13.8480   23.4436 O.2     1  lig        -0.5348
     48 O2         33.0443   11.9948   34.2591 O.3     1  lig        -0.5805
@<TRIPOS>BOND
     1    31    47    2
     2    31    33    1
     3    29    31    1
     4    33    35    1
     5     5    33    1
     6     6    33    1
     7    29    30    2
     8     2    29    1
     9    30    32    1
    10    30    40    1
    11    32    34    1
    12     3    32    1
    13     4    32    1
    14    35    40    1
    15    40    42    1
    16    19    40    1
    17     9    35    1
    18    10    35    1
    19    41    42    1
    20    37    42    1
    21    21    42    1
    22    34    41    1
    23    41    43    1
    24    20    41    1
    25     7    34    1
    26     8    34    1
    27    37    39    1
    28    13    37    1
    29    14    37    1
    30    39    45    1
    31    17    39    1
    32    18    39    1
    33    43    45    1
    34    45    46    1
    35    44    45    1
    36    36    43    1
    37    22    43    1
    38    23    46    1
    39    24    46    1
    40    25    46    1
    41    44    48    1
    42    38    44    1
    43    28    44    1
    44    26    48    1
    45    36    38    1
    46    15    38    1
    47    16    38    1
    48    11    36    1
    49    12    36    1
    50    27    28    3
    51     1    27    1
@<TRIPOS>SUBSTRUCTURE
     1 lig         1 TEMP              0 ****  ****    0 ROOT


########## Name:		ligand
########## HA_RMSDs:		18.0084
########## HA_RMSDh:		17.8385
########## HA_RMSDm:		15.7042
########## Cluster Size:	1
##########    Grid Score:          -12.629992
##########      Grid_vdw:          -11.825813
##########       Grid_es:           -0.804179
##########    Int_energy:            3.010427

@<TRIPOS>MOLECULE
ligand
 48 51 1 0 0
SMALL
No Charge or Current Charge


@<TRIPOS>ATOM
      1 H1          2.6803   21.1821    8.6136 H       1  lig         0.1670
      2 H2          1.2010   27.8356   15.3645 H       1  lig         0.1473
      3 H3          1.0918   25.4804   15.4701 H       1  lig         0.0559
      4 H4          2.5977   25.1056   16.2751 H       1  lig         0.0575
      5 H5          4.9588   28.9437   14.6389 H       1  lig         0.0688
      6 H6          4.4589   29.6646   13.1102 H       1  lig         0.0740
      7 H7          1.5136   23.9726   13.6917 H       1  lig         0.0477
      8 H8          2.0195   23.1068   15.1376 H       1  lig         0.0465
      9 H9          5.5780   27.4167   12.8852 H       1  lig         0.0495
     10 H10         3.9800   27.4821   12.1403 H       1  lig         0.0527
     11 H11         2.1925   21.1456   13.5036 H       1  lig         0.0459
     12 H12         3.5304   21.0215   14.6656 H       1  lig         0.0459
     13 H13         6.3223   24.8499   13.0589 H       1  lig         0.0438
     14 H14         5.5622   25.6153   11.6929 H       1  lig         0.0425
     15 H15         4.6028   19.4979   13.3880 H       1  lig         0.0681
     16 H16         3.2929   19.4278   12.2677 H       1  lig         0.0571
     17 H17         6.4616   23.3539   11.1572 H       1  lig         0.0423
     18 H18         4.7719   23.5780   10.8015 H       1  lig         0.0489
     19 H19         4.7872   26.2044   14.7372 H       1  lig         0.0634
     20 H20         4.2877   23.6436   14.7093 H       1  lig         0.0564
     21 H21         3.4455   25.1193   12.4889 H       1  lig         0.0555
     22 H22         3.1610   22.7141   12.3388 H       1  lig         0.0551
     23 H23         6.1491   21.0326   14.0212 H       1  lig         0.0433
     24 H24         7.2586   21.9361   13.0251 H       1  lig         0.0424
     25 H25         6.3224   22.7700   14.2597 H       1  lig         0.0357
     26 H26         5.6167   19.2994   10.9276 H       1  lig         0.4072
     27 C1          3.2961   21.1684    9.4866 C.1     1  lig        -0.1335
     28 C2          4.0236   21.1145   10.5340 C.1     1  lig        -0.1688
     29 C3          2.1412   27.7336   14.8354 C.2     1  lig        -0.2674
     30 C4          2.8490   26.4973   14.6544 C.2     1  lig        -0.0292
     31 C5          2.8406   28.9384   14.3154 C.2     1  lig         0.5673
     32 C6          2.1499   25.2727   15.2925 C.3     1  lig        -0.0559
     33 C7          4.2698   28.8597   13.7986 C.3     1  lig        -0.1823
     34 C8          2.2574   23.9472   14.4879 C.3     1  lig        -0.0728
     35 C9          4.5089   27.4800   13.0979 C.3     1  lig        -0.0705
     36 C10         3.2783   21.1812   13.6194 C.3     1  lig        -0.0740
     37 C11         5.4454   24.8078   12.4085 C.3     1  lig        -0.0723
     38 C12         3.9777   20.1162   12.7450 C.3     1  lig        -0.0690
     39 C13         5.4823   23.4699   11.6222 C.3     1  lig        -0.0643
     40 C14         4.0393   26.2552   13.9411 C.3     1  lig        -0.0353
     41 C15         3.6562   23.7695   13.8270 C.3     1  lig        -0.0466
     42 C16         4.1789   24.9759   13.2899 C.3     1  lig        -0.0538
     43 C17         3.8487   22.5132   13.1656 C.3     1  lig        -0.0659
     44 C18         4.8617   20.8830   11.7474 C.3     1  lig         0.2372
     45 C19         5.1526   22.2083   12.4433 C.3     1  lig        -0.0680
     46 C20         6.2826   21.9758   13.5129 C.3     1  lig        -0.0802
     47 O1          2.2492   29.9600   14.3946 O.2     1  lig        -0.5348
     48 O2          5.9909   20.1013   11.3445 O.3     1  lig        -0.5805
@<TRIPOS>BOND
     1    31    47    2
     2    31    33    1
     3    29    31    1
     4    33    35    1
     5     5    33    1
     6     6    33    1
     7    29    30    2
     8     2    29    1
     9    30    32    1
    10    30    40    1
    11    32    34    1
    12     3    32    1
    13     4    32    1
    14    35    40    1
    15    40    42    1
    16    19    40    1
    17     9    35    1
    18    10    35    1
    19    41    42    1
    20    37    42    1
    21    21    42    1
    22    34    41    1
    23    41    43    1
    24    20    41    1
    25     7    34    1
    26     8    34    1
    27    37    39    1
    28    13    37    1
    29    14    37    1
    30    39    45    1
    31    17    39    1
    32    18    39    1
    33    43    45    1
    34    45    46    1
    35    44    45    1
    36    36    43    1
    37    22    43    1
    38    23    46    1
    39    24    46    1
    40    25    46    1
    41    44    48    1
    42    38    44    1
    43    28    44    1
    44    26    48    1
    45    36    38    1
    46    15    38    1
    47    16    38    1
    48    11    36    1
    49    12    36    1
    50    27    28    3
    51     1    27    1
@<TRIPOS>SUBSTRUCTURE
     1 lig         1 TEMP              0 ****  ****    0 ROOT


########## Name:		ligand
########## HA_RMSDs:		19.6232
########## HA_RMSDh:		19.3444
########## HA_RMSDm:		14.9101
########## Cluster Size:	3
##########    Grid Score:          -12.572752
##########      Grid_vdw:          -11.003256
##########       Grid_es:           -1.569496
##########    Int_energy:            3.179274

@<TRIPOS>MOLECULE
ligand
 48 51 1 0 0
SMALL
No Charge or Current Charge


@<TRIPOS>ATOM
      1 H1         30.0485   10.2847   28.8684 H       1  lig         0.1670
      2 H2         37.6847   14.0704   32.9177 H       1  lig         0.1473
      3 H3         37.4917   13.1224   30.7649 H       1  lig         0.0559
      4 H4         37.3799   14.5560   29.7706 H       1  lig         0.0575
      5 H5         35.3575   17.2965   33.1442 H       1  lig         0.0688
      6 H6         34.3999   16.5262   34.4076 H       1  lig         0.0740
      7 H7         35.5434   12.1565   29.8239 H       1  lig         0.0477
      8 H8         36.4063   12.8421   28.4522 H       1  lig         0.0465
      9 H9         33.3297   16.4965   32.1252 H       1  lig         0.0495
     10 H10        33.4942   14.8934   32.8434 H       1  lig         0.0527
     11 H11        34.6401   11.5570   27.1197 H       1  lig         0.0459
     12 H12        34.9535   13.0957   26.2892 H       1  lig         0.0459
     13 H13        32.7411   16.2005   29.5293 H       1  lig         0.0438
     14 H14        32.0583   15.2998   30.8529 H       1  lig         0.0425
     15 H15        33.1089   12.8685   25.0048 H       1  lig         0.0681
     16 H16        32.7896   11.2959   25.6377 H       1  lig         0.0571
     17 H17        30.8291   14.9547   28.7129 H       1  lig         0.0423
     18 H18        31.3951   13.4980   29.4805 H       1  lig         0.0489
     19 H19        35.1341   16.1470   30.6600 H       1  lig         0.0634
     20 H20        34.9910   14.7428   28.4655 H       1  lig         0.0564
     21 H21        33.7191   13.6921   30.7228 H       1  lig         0.0555
     22 H22        33.3870   12.4744   28.6504 H       1  lig         0.0551
     23 H23        33.1037   14.9951   25.7952 H       1  lig         0.0433
     24 H24        31.8298   15.8443   26.6292 H       1  lig         0.0424
     25 H25        33.4710   15.9021   27.2608 H       1  lig         0.0357
     26 H26        30.0825   13.8185   26.3841 H       1  lig         0.4072
     27 C1         30.5795   10.9760   28.2507 C.1     1  lig        -0.1335
     28 C2         31.1843   11.8263   27.5155 C.1     1  lig        -0.1688
     29 C3         36.7504   14.5883   32.7353 C.2     1  lig        -0.2674
     30 C4         36.0669   14.6245   31.4729 C.2     1  lig        -0.0292
     31 C5         36.1308   15.4115   33.8076 C.2     1  lig         0.5673
     32 C6         36.7847   13.8430   30.3461 C.3     1  lig        -0.0559
     33 C7         34.9678   16.3473   33.5116 C.3     1  lig        -0.1823
     34 C8         35.8524   13.0909   29.3557 C.3     1  lig        -0.0728
     35 C9         34.0513   15.7261   32.4043 C.3     1  lig        -0.0705
     36 C10        34.2056   12.5151   26.8251 C.3     1  lig        -0.0740
     37 C11        32.6132   15.1908   29.9267 C.3     1  lig        -0.0723
     38 C12        32.9571   12.3226   25.9350 C.3     1  lig        -0.0690
     39 C13        31.7298   14.3833   28.9382 C.3     1  lig        -0.0643
     40 C14        34.8308   15.2190   31.1525 C.3     1  lig        -0.0353
     41 C15        34.5669   13.9039   29.0219 C.3     1  lig        -0.0466
     42 C16        34.0205   14.5747   30.1482 C.3     1  lig        -0.0538
     43 C17        33.7249   13.3079   28.0275 C.3     1  lig        -0.0659
     44 C18        31.7742   12.9326   26.7052 C.3     1  lig         0.2372
     45 C19        32.4156   13.9685   27.6221 C.3     1  lig        -0.0680
     46 C20        32.7375   15.2557   26.7769 C.3     1  lig        -0.0802
     47 O1         36.6386   15.3470   34.8742 O.2     1  lig        -0.5348
     48 O2         30.7567   13.3988   25.8130 O.3     1  lig        -0.5805
@<TRIPOS>BOND
     1    31    47    2
     2    31    33    1
     3    29    31    1
     4    33    35    1
     5     5    33    1
     6     6    33    1
     7    29    30    2
     8     2    29    1
     9    30    32    1
    10    30    40    1
    11    32    34    1
    12     3    32    1
    13     4    32    1
    14    35    40    1
    15    40    42    1
    16    19    40    1
    17     9    35    1
    18    10    35    1
    19    41    42    1
    20    37    42    1
    21    21    42    1
    22    34    41    1
    23    41    43    1
    24    20    41    1
    25     7    34    1
    26     8    34    1
    27    37    39    1
    28    13    37    1
    29    14    37    1
    30    39    45    1
    31    17    39    1
    32    18    39    1
    33    43    45    1
    34    45    46    1
    35    44    45    1
    36    36    43    1
    37    22    43    1
    38    23    46    1
    39    24    46    1
    40    25    46    1
    41    44    48    1
    42    38    44    1
    43    28    44    1
    44    26    48    1
    45    36    38    1
    46    15    38    1
    47    16    38    1
    48    11    36    1
    49    12    36    1
    50    27    28    3
    51     1    27    1
@<TRIPOS>SUBSTRUCTURE
     1 lig         1 TEMP              0 ****  ****    0 ROOT


########## Name:		ligand
########## HA_RMSDs:		18.7502
########## HA_RMSDh:		18.7502
########## HA_RMSDm:		14.1459
########## Cluster Size:	2
##########    Grid Score:          -12.515638
##########      Grid_vdw:          -12.072870
##########       Grid_es:           -0.442768
##########    Int_energy:            3.253987

@<TRIPOS>MOLECULE
ligand
 48 51 1 0 0
SMALL
No Charge or Current Charge


@<TRIPOS>ATOM
      1 H1         36.7222   17.8060   32.0793 H       1  lig         0.1670
      2 H2         34.5334   12.2974   25.1423 H       1  lig         0.1473
      3 H3         35.4405   11.7745   27.2575 H       1  lig         0.0559
      4 H4         34.0399   11.1245   28.0772 H       1  lig         0.0575
      5 H5         30.8321   13.6957   25.6113 H       1  lig         0.0688
      6 H6         31.3233   15.2456   24.9305 H       1  lig         0.0740
      7 H7         35.9149   13.3070   29.0013 H       1  lig         0.0477
      8 H8         35.4844   11.8139   29.8269 H       1  lig         0.0465
      9 H9         31.1274   15.2270   27.4439 H       1  lig         0.0495
     10 H10        32.7099   15.7530   26.8678 H       1  lig         0.0527
     11 H11        36.3193   13.0943   31.8787 H       1  lig         0.0459
     12 H12        34.9182   12.1165   32.3649 H       1  lig         0.0459
     13 H13        31.3129   14.7147   30.0661 H       1  lig         0.0438
     14 H14        31.9969   16.0787   29.2288 H       1  lig         0.0425
     15 H15        34.7076   13.2440   34.3113 H       1  lig         0.0681
     16 H16        36.1433   14.1512   34.0097 H       1  lig         0.0571
     17 H17        32.0654   16.3320   31.7069 H       1  lig         0.0423
     18 H18        33.6036   16.4931   30.9071 H       1  lig         0.0489
     19 H19        31.9325   13.1056   28.0574 H       1  lig         0.0634
     20 H20        33.2948   12.6258   30.2304 H       1  lig         0.0564
     21 H21        33.9645   14.9351   28.8036 H       1  lig         0.0555
     22 H22        35.0977   14.6299   30.9275 H       1  lig         0.0551
     23 H23        32.6319   13.0955   33.4078 H       1  lig         0.0433
     24 H24        31.4827   14.3707   33.1027 H       1  lig         0.0424
     25 H25        31.8185   13.1847   31.8470 H       1  lig         0.0357
     26 H26        34.2887   15.5611   35.2011 H       1  lig         0.4072
     27 C1         36.0293   17.0977   32.4789 C.1     1  lig        -0.1335
     28 C2         35.2048   16.2308   32.9238 C.1     1  lig        -0.1688
     29 C3         33.8054   12.9213   25.6475 C.2     1  lig        -0.2674
     30 C4         33.6236   12.9793   27.0708 C.2     1  lig        -0.0292
     31 C5         32.8380   13.7292   24.8585 C.2     1  lig         0.5673
     32 C6         34.5757   12.0528   27.8650 C.3     1  lig        -0.0559
     33 C7         31.6506   14.4100   25.5239 C.3     1  lig        -0.1823
     34 C8         35.0926   12.6243   29.2148 C.3     1  lig        -0.0728
     35 C9         32.0465   14.8883   26.9614 C.3     1  lig        -0.0705
     36 C10        35.2889   13.1317   32.2399 C.3     1  lig        -0.0740
     37 C11        32.2538   15.2258   29.8487 C.3     1  lig        -0.0723
     38 C12        35.1842   13.8949   33.5796 C.3     1  lig        -0.0690
     39 C13        32.8364   15.7679   31.1814 C.3     1  lig        -0.0643
     40 C14        32.7497   13.7921   27.8190 C.3     1  lig        -0.0353
     41 C15        33.9949   13.4247   29.9761 C.3     1  lig        -0.0466
     42 C16        33.1923   14.2261   29.1213 C.3     1  lig        -0.0538
     43 C17        34.3828   13.8796   31.2782 C.3     1  lig        -0.0659
     44 C18        34.2903   15.1180   33.3160 C.3     1  lig         0.2372
     45 C19        33.4283   14.7056   32.1277 C.3     1  lig        -0.0680
     46 C20        32.2733   13.7716   32.6462 C.3     1  lig        -0.0802
     47 O1         33.0072   13.7490   23.6877 O.2     1  lig        -0.5348
     48 O2         33.6038   15.5269   34.5035 O.3     1  lig        -0.5805
@<TRIPOS>BOND
     1    31    47    2
     2    31    33    1
     3    29    31    1
     4    33    35    1
     5     5    33    1
     6     6    33    1
     7    29    30    2
     8     2    29    1
     9    30    32    1
    10    30    40    1
    11    32    34    1
    12     3    32    1
    13     4    32    1
    14    35    40    1
    15    40    42    1
    16    19    40    1
    17     9    35    1
    18    10    35    1
    19    41    42    1
    20    37    42    1
    21    21    42    1
    22    34    41    1
    23    41    43    1
    24    20    41    1
    25     7    34    1
    26     8    34    1
    27    37    39    1
    28    13    37    1
    29    14    37    1
    30    39    45    1
    31    17    39    1
    32    18    39    1
    33    43    45    1
    34    45    46    1
    35    44    45    1
    36    36    43    1
    37    22    43    1
    38    23    46    1
    39    24    46    1
    40    25    46    1
    41    44    48    1
    42    38    44    1
    43    28    44    1
    44    26    48    1
    45    36    38    1
    46    15    38    1
    47    16    38    1
    48    11    36    1
    49    12    36    1
    50    27    28    3
    51     1    27    1
@<TRIPOS>SUBSTRUCTURE
     1 lig         1 TEMP              0 ****  ****    0 ROOT


########## Name:		ligand
########## HA_RMSDs:		15.3592
########## HA_RMSDh:		15.2192
########## HA_RMSDm:		9.3086
########## Cluster Size:	1
##########    Grid Score:          -12.506195
##########      Grid_vdw:          -12.853422
##########       Grid_es:            0.347227
##########    Int_energy:            3.165795

@<TRIPOS>MOLECULE
ligand
 48 51 1 0 0
SMALL
No Charge or Current Charge


@<TRIPOS>ATOM
      1 H1         17.6042   15.7744   30.8035 H       1  lig         0.1670
      2 H2         20.0144   23.3806   35.8780 H       1  lig         0.1473
      3 H3         19.7351   21.1571   36.6187 H       1  lig         0.0559
      4 H4         21.3965   20.6252   36.7328 H       1  lig         0.0575
      5 H5         23.0452   23.5324   33.2959 H       1  lig         0.0688
      6 H6         21.9447   24.0585   32.0236 H       1  lig         0.0740
      7 H7         19.0936   19.3031   35.2900 H       1  lig         0.0477
      8 H8         20.1450   18.6217   36.5255 H       1  lig         0.0465
      9 H9         22.5854   21.6231   31.9053 H       1  lig         0.0495
     10 H10        20.8420   21.8875   31.9627 H       1  lig         0.0527
     11 H11        19.3113   16.4092   35.5476 H       1  lig         0.0459
     12 H12        21.0237   16.2169   35.9791 H       1  lig         0.0459
     13 H13        23.0605   19.0301   32.3776 H       1  lig         0.0438
     14 H14        21.8166   19.6822   31.3497 H       1  lig         0.0425
     15 H15        21.1884   14.3008   34.7937 H       1  lig         0.0681
     16 H16        19.5011   14.3079   34.4352 H       1  lig         0.0571
     17 H17        22.1149   17.2245   31.0663 H       1  lig         0.0423
     18 H18        20.4953   17.7297   31.4579 H       1  lig         0.0489
     19 H19        22.6697   20.9514   34.1562 H       1  lig         0.0634
     20 H20        21.9658   18.5881   35.0091 H       1  lig         0.0564
     21 H21        20.3091   19.7887   33.1035 H       1  lig         0.0555
     22 H22        19.7488   17.5084   33.7159 H       1  lig         0.0551
     23 H23        22.9928   15.5661   34.2550 H       1  lig         0.0433
     24 H24        23.5680   16.0264   32.6749 H       1  lig         0.0424
     25 H25        23.4322   17.2431   33.9386 H       1  lig         0.0357
     26 H26        21.6494   14.5521   31.3619 H       1  lig         0.4072
     27 C1         18.4437   15.6379   31.4500 C.1     1  lig        -0.1335
     28 C2         19.4690   15.4694   32.1914 C.1     1  lig        -0.1688
     29 C3         20.5671   22.9920   35.0307 C.2     1  lig        -0.2674
     30 C4         20.9723   21.6231   34.8752 C.2     1  lig        -0.0292
     31 C5         21.0452   23.9122   33.9649 C.2     1  lig         0.5673
     32 C6         20.5494   20.7048   36.0472 C.3     1  lig        -0.0559
     33 C7         22.0318   23.4463   32.9040 C.3     1  lig        -0.1823
     34 C8         20.1224   19.2648   35.6476 C.3     1  lig        -0.0728
     35 C9         21.7640   21.9450   32.5486 C.3     1  lig        -0.0705
     36 C10        20.3155   16.2373   35.1534 C.3     1  lig        -0.0740
     37 C11        21.9794   19.0572   32.2217 C.3     1  lig        -0.0723
     38 C12        20.3960   14.9117   34.3632 C.3     1  lig        -0.0690
     39 C13        21.4987   17.6232   31.8724 C.3     1  lig        -0.0643
     40 C14        21.6398   21.0150   33.7941 C.3     1  lig        -0.0353
     41 C15        21.0031   18.6843   34.5020 C.3     1  lig        -0.0466
     42 C16        21.3193   19.6399   33.4999 C.3     1  lig        -0.0538
     43 C17        20.7261   17.3185   34.1695 C.3     1  lig        -0.0659
     44 C18        20.7606   15.2872   32.9174 C.3     1  lig         0.2372
     45 C19        21.4818   16.6246   33.0460 C.3     1  lig        -0.0680
     46 C20        22.9580   16.3550   33.5187 C.3     1  lig        -0.0802
     47 O1         20.6708   25.0323   34.0359 O.2     1  lig        -0.5348
     48 O2         21.4708   14.2281   32.2674 O.3     1  lig        -0.5805
@<TRIPOS>BOND
     1    31    47    2
     2    31    33    1
     3    29    31    1
     4    33    35    1
     5     5    33    1
     6     6    33    1
     7    29    30    2
     8     2    29    1
     9    30    32    1
    10    30    40    1
    11    32    34    1
    12     3    32    1
    13     4    32    1
    14    35    40    1
    15    40    42    1
    16    19    40    1
    17     9    35    1
    18    10    35    1
    19    41    42    1
    20    37    42    1
    21    21    42    1
    22    34    41    1
    23    41    43    1
    24    20    41    1
    25     7    34    1
    26     8    34    1
    27    37    39    1
    28    13    37    1
    29    14    37    1
    30    39    45    1
    31    17    39    1
    32    18    39    1
    33    43    45    1
    34    45    46    1
    35    44    45    1
    36    36    43    1
    37    22    43    1
    38    23    46    1
    39    24    46    1
    40    25    46    1
    41    44    48    1
    42    38    44    1
    43    28    44    1
    44    26    48    1
    45    36    38    1
    46    15    38    1
    47    16    38    1
    48    11    36    1
    49    12    36    1
    50    27    28    3
    51     1    27    1
@<TRIPOS>SUBSTRUCTURE
     1 lig         1 TEMP              0 ****  ****    0 ROOT


########## Name:		ligand
########## HA_RMSDs:		18.0035
########## HA_RMSDh:		17.9888
########## HA_RMSDm:		13.7765
########## Cluster Size:	1
##########    Grid Score:          -12.462497
##########      Grid_vdw:          -12.800680
##########       Grid_es:            0.338183
##########    Int_energy:            3.188675

@<TRIPOS>MOLECULE
ligand
 48 51 1 0 0
SMALL
No Charge or Current Charge


@<TRIPOS>ATOM
      1 H1          4.8507   13.9674   30.7930 H       1  lig         0.1670
      2 H2          4.7520   16.3319   21.6729 H       1  lig         0.1473
      3 H3          5.9126   14.5562   22.7075 H       1  lig         0.0559
      4 H4          4.8863   13.1991   22.3060 H       1  lig         0.0575
      5 H5          0.8313   15.7455   22.0717 H       1  lig         0.0688
      6 H6          0.6984   17.2265   23.0181 H       1  lig         0.0740
      7 H7          5.9179   14.0385   25.0197 H       1  lig         0.0477
      8 H8          6.0960   12.4835   24.2159 H       1  lig         0.0465
      9 H9          0.6753   15.1098   24.3873 H       1  lig         0.0495
     10 H10         1.9302   16.2487   24.8782 H       1  lig         0.0527
     11 H11         6.5458   11.6734   26.6008 H       1  lig         0.0459
     12 H12         5.6150   10.4199   25.7535 H       1  lig         0.0459
     13 H13         1.1898   12.7441   25.5325 H       1  lig         0.0438
     14 H14         1.2932   14.3054   26.2948 H       1  lig         0.0425
     15 H15         5.1371    9.3559   27.6883 H       1  lig         0.0681
     16 H16         6.1365   10.4305   28.5950 H       1  lig         0.0571
     17 H17         1.4182   12.4241   27.9241 H       1  lig         0.0423
     18 H18         2.7474   13.5467   27.9916 H       1  lig         0.0489
     19 H19         2.2162   13.7124   23.2928 H       1  lig         0.0634
     20 H20         3.7898   12.0254   24.5118 H       1  lig         0.0564
     21 H21         3.5086   14.5543   25.6705 H       1  lig         0.0555
     22 H22         4.8035   12.9405   26.9382 H       1  lig         0.0551
     23 H23         3.1981    9.5005   26.5194 H       1  lig         0.0433
     24 H24         1.6551   10.1221   27.0414 H       1  lig         0.0424
     25 H25         2.3125   10.6215   25.4876 H       1  lig         0.0357
     26 H26         3.9264    9.8636   30.0116 H       1  lig         0.4072
     27 C1          4.6882   13.1443   30.1315 C.1     1  lig        -0.1335
     28 C2          4.4572   12.1597   29.3528 C.1     1  lig        -0.1688
     29 C3          3.8823   16.0586   22.2588 C.2     1  lig        -0.2674
     30 C4          3.7787   14.8777   23.0692 C.2     1  lig        -0.0292
     31 C5          2.6451   16.8805   22.1876 C.2     1  lig         0.5673
     32 C6          5.0440   13.9864   23.0471 C.3     1  lig        -0.0559
     33 C7          1.3364   16.3906   22.7903 C.3     1  lig        -0.1823
     34 C8          5.4058   13.3055   24.3966 C.3     1  lig        -0.0728
     35 C9          1.6236   15.5595   24.0860 C.3     1  lig        -0.0705
     36 C10         5.5932   11.1395   26.5693 C.3     1  lig        -0.0740
     37 C11         1.8731   13.4213   26.0504 C.3     1  lig        -0.0723
     38 C12         5.3064   10.4106   27.9014 C.3     1  lig        -0.0690
     39 C13         2.3055   12.7556   27.3843 C.3     1  lig        -0.0643
     40 C14         2.7207   14.4665   23.9033 C.3     1  lig        -0.0353
     41 C15         4.1442   12.8214   25.1705 C.3     1  lig        -0.0466
     42 C16         3.0590   13.7349   25.0993 C.3     1  lig        -0.0538
     43 C17         4.4239   12.0871   26.3685 C.3     1  lig        -0.0659
     44 C18         4.0226   11.0350   28.4726 C.3     1  lig         0.2372
     45 C19         3.2922   11.5796   27.2498 C.3     1  lig        -0.0680
     46 C20         2.5774   10.3839   26.5188 C.3     1  lig        -0.0802
     47 O1          2.7247   17.8918   21.5787 O.2     1  lig        -0.5348
     48 O2          3.3093   10.1024   29.2911 O.3     1  lig        -0.5805
@<TRIPOS>BOND
     1    31    47    2
     2    31    33    1
     3    29    31    1
     4    33    35    1
     5     5    33    1
     6     6    33    1
     7    29    30    2
     8     2    29    1
     9    30    32    1
    10    30    40    1
    11    32    34    1
    12     3    32    1
    13     4    32    1
    14    35    40    1
    15    40    42    1
    16    19    40    1
    17     9    35    1
    18    10    35    1
    19    41    42    1
    20    37    42    1
    21    21    42    1
    22    34    41    1
    23    41    43    1
    24    20    41    1
    25     7    34    1
    26     8    34    1
    27    37    39    1
    28    13    37    1
    29    14    37    1
    30    39    45    1
    31    17    39    1
    32    18    39    1
    33    43    45    1
    34    45    46    1
    35    44    45    1
    36    36    43    1
    37    22    43    1
    38    23    46    1
    39    24    46    1
    40    25    46    1
    41    44    48    1
    42    38    44    1
    43    28    44    1
    44    26    48    1
    45    36    38    1
    46    15    38    1
    47    16    38    1
    48    11    36    1
    49    12    36    1
    50    27    28    3
    51     1    27    1
@<TRIPOS>SUBSTRUCTURE
     1 lig         1 TEMP              0 ****  ****    0 ROOT


########## Name:		ligand
########## HA_RMSDs:		19.4436
########## HA_RMSDh:		19.0226
########## HA_RMSDm:		15.0424
########## Cluster Size:	4
##########    Grid Score:          -12.422514
##########      Grid_vdw:          -11.508781
##########       Grid_es:           -0.913732
##########    Int_energy:            3.010939

@<TRIPOS>MOLECULE
ligand
 48 51 1 0 0
SMALL
No Charge or Current Charge


@<TRIPOS>ATOM
      1 H1         36.3058   15.8021   29.7799 H       1  lig         0.1670
      2 H2         30.1374    9.8181   34.0384 H       1  lig         0.1473
      3 H3         29.8158   11.9676   33.1183 H       1  lig         0.0559
      4 H4         29.0341   11.5762   31.6043 H       1  lig         0.0575
      5 H5         31.0929    7.2734   31.1251 H       1  lig         0.0688
      6 H6         32.6618    6.9903   31.8768 H       1  lig         0.0740
      7 H7         31.4646   13.3102   32.0728 H       1  lig         0.0477
      8 H8         29.9652   13.7286   31.2524 H       1  lig         0.0465
      9 H9         32.7224    8.5456   29.8936 H       1  lig         0.0495
     10 H10        33.4131    9.2484   31.3571 H       1  lig         0.0527
     11 H11        31.4205   15.5713   30.2360 H       1  lig         0.0459
     12 H12        30.3002   14.9930   28.9846 H       1  lig         0.0459
     13 H13        32.3441   10.5101   28.1130 H       1  lig         0.0438
     14 H14        33.7458   10.2837   29.1196 H       1  lig         0.0425
     15 H15        31.4722   16.0206   27.3493 H       1  lig         0.0681
     16 H16        32.5344   16.7569   28.4918 H       1  lig         0.0571
     17 H17        34.1067   11.9760   27.3264 H       1  lig         0.0423
     18 H18        34.4210   12.5383   28.9440 H       1  lig         0.0489
     19 H19        30.7416    9.7950   30.0950 H       1  lig         0.0634
     20 H20        30.5204   12.3101   29.4369 H       1  lig         0.0564
     21 H21        32.8338   11.5646   30.8188 H       1  lig         0.0555
     22 H22        32.7558   13.8593   30.0333 H       1  lig         0.0551
     23 H23        31.0355   13.9158   26.6241 H       1  lig         0.0433
     24 H24        32.1478   12.7231   26.0077 H       1  lig         0.0424
     25 H25        30.9611   12.2596   27.2214 H       1  lig         0.0357
     26 H26        34.3768   14.4964   26.1713 H       1  lig         0.4072
     27 C1         35.4587   15.4639   29.2237 C.1     1  lig        -0.1335
     28 C2         34.4382   15.0966   28.5506 C.1     1  lig        -0.1688
     29 C3         30.6882    9.5553   33.1429 C.2     1  lig        -0.2674
     30 C4         30.7818   10.3763   31.9684 C.2     1  lig        -0.0292
     31 C5         31.3394    8.2232   33.0300 C.2     1  lig         0.5673
     32 C6         30.0113   11.7146   32.0733 C.3     1  lig        -0.0559
     33 C7         31.8973    7.7272   31.7038 C.3     1  lig        -0.1823
     34 C8         30.6962   12.9351   31.3970 C.3     1  lig        -0.0728
     35 C9         32.4786    8.9295   30.8863 C.3     1  lig        -0.0705
     36 C10        31.3470   15.0598   29.2735 C.3     1  lig        -0.0740
     37 C11        32.9566   10.9891   28.8806 C.3     1  lig        -0.0723
     38 C12        32.1459   15.7979   28.1758 C.3     1  lig        -0.0690
     39 C13        33.6196   12.2493   28.2627 C.3     1  lig        -0.0643
     40 C14        31.5121   10.1491   30.7855 C.3     1  lig        -0.0353
     41 C15        31.3875   12.5550   30.0544 C.3     1  lig        -0.0466
     42 C16        32.0496   11.2994   30.1014 C.3     1  lig        -0.0538
     43 C17        31.9391   13.6628   29.3324 C.3     1  lig        -0.0659
     44 C18        33.2393   14.8253   27.7036 C.3     1  lig         0.2372
     45 C19        32.6768   13.4437   28.0198 C.3     1  lig        -0.0680
     46 C20        31.6312   13.0614   26.9082 C.3     1  lig        -0.0802
     47 O1         31.3318    7.5543   34.0059 O.2     1  lig        -0.5348
     48 O2         33.6098   15.0783   26.3444 O.3     1  lig        -0.5805
@<TRIPOS>BOND
     1    31    47    2
     2    31    33    1
     3    29    31    1
     4    33    35    1
     5     5    33    1
     6     6    33    1
     7    29    30    2
     8     2    29    1
     9    30    32    1
    10    30    40    1
    11    32    34    1
    12     3    32    1
    13     4    32    1
    14    35    40    1
    15    40    42    1
    16    19    40    1
    17     9    35    1
    18    10    35    1
    19    41    42    1
    20    37    42    1
    21    21    42    1
    22    34    41    1
    23    41    43    1
    24    20    41    1
    25     7    34    1
    26     8    34    1
    27    37    39    1
    28    13    37    1
    29    14    37    1
    30    39    45    1
    31    17    39    1
    32    18    39    1
    33    43    45    1
    34    45    46    1
    35    44    45    1
    36    36    43    1
    37    22    43    1
    38    23    46    1
    39    24    46    1
    40    25    46    1
    41    44    48    1
    42    38    44    1
    43    28    44    1
    44    26    48    1
    45    36    38    1
    46    15    38    1
    47    16    38    1
    48    11    36    1
    49    12    36    1
    50    27    28    3
    51     1    27    1
@<TRIPOS>SUBSTRUCTURE
     1 lig         1 TEMP              0 ****  ****    0 ROOT


########## Name:		ligand
########## HA_RMSDs:		15.9287
########## HA_RMSDh:		15.6916
########## HA_RMSDm:		11.4698
########## Cluster Size:	2
##########    Grid Score:          -12.290419
##########      Grid_vdw:          -12.472270
##########       Grid_es:            0.181852
##########    Int_energy:            3.006837

@<TRIPOS>MOLECULE
ligand
 48 51 1 0 0
SMALL
No Charge or Current Charge


@<TRIPOS>ATOM
      1 H1         24.3469   13.8628   36.6545 H       1  lig         0.1670
      2 H2         18.7441   21.5631   35.3637 H       1  lig         0.1473
      3 H3         20.8605   21.0314   34.4645 H       1  lig         0.0559
      4 H4         20.4272   20.5341   32.8455 H       1  lig         0.0575
      5 H5         16.0502   18.9602   34.0060 H       1  lig         0.0688
      6 H6         15.7545   18.3974   35.6500 H       1  lig         0.0740
      7 H7         22.1088   19.0605   34.8787 H       1  lig         0.0477
      8 H8         22.5347   19.5188   33.2340 H       1  lig         0.0465
      9 H9         17.2208   16.8752   34.2757 H       1  lig         0.0495
     10 H10        17.9655   17.3853   35.7917 H       1  lig         0.0527
     11 H11        24.2893   17.6798   33.5269 H       1  lig         0.0459
     12 H12        23.6903   17.6166   31.8557 H       1  lig         0.0459
     13 H13        19.1171   15.7852   32.7302 H       1  lig         0.0438
     14 H14        18.8938   15.5176   34.4355 H       1  lig         0.0425
     15 H15        24.6126   15.5819   31.5189 H       1  lig         0.0681
     16 H16        25.3663   15.6012   33.0704 H       1  lig         0.0571
     17 H17        20.4964   13.9106   33.4066 H       1  lig         0.0423
     18 H18        21.1183   14.8024   34.7666 H       1  lig         0.0489
     19 H19        18.5343   18.3528   33.0045 H       1  lig         0.0634
     20 H20        21.0241   17.9167   32.3578 H       1  lig         0.0564
     21 H21        20.2723   17.2967   34.9784 H       1  lig         0.0555
     22 H22        22.5324   16.6806   34.3453 H       1  lig         0.0551
     23 H23        22.4921   15.4850   30.7183 H       1  lig         0.0433
     24 H24        21.2424   14.3248   31.0814 H       1  lig         0.0424
     25 H25        20.8658   16.0434   31.1043 H       1  lig         0.0357
     26 H26        22.8459   12.8261   32.6395 H       1  lig         0.4072
     27 C1         24.0157   14.1026   35.6675 C.1     1  lig        -0.1335
     28 C2         23.6558   14.3826   34.4753 C.1     1  lig        -0.1688
     29 C3         18.4273   20.5551   35.1230 C.2     1  lig        -0.2674
     30 C4         19.1941   19.6179   34.3511 C.2     1  lig        -0.0292
     31 C5         17.0734   20.0831   35.5172 C.2     1  lig         0.5673
     32 C6         20.5573   20.1682   33.8668 C.3     1  lig        -0.0559
     33 C7         16.5050   18.7778   34.9795 C.3     1  lig        -0.1823
     34 C8         21.7273   19.1450   33.8613 C.3     1  lig        -0.0728
     35 C9         17.6538   17.7289   34.8010 C.3     1  lig        -0.0705
     36 C10        23.7392   17.0779   32.7997 C.3     1  lig        -0.0740
     37 C11        19.6108   15.8704   33.7012 C.3     1  lig        -0.0723
     38 C12        24.4062   15.7011   32.5818 C.3     1  lig        -0.0690
     39 C13        20.8236   14.9018   33.7211 C.3     1  lig        -0.0643
     40 C14        18.8953   18.2784   34.0339 C.3     1  lig        -0.0353
     41 C15        21.2702   17.7279   33.4052 C.3     1  lig        -0.0466
     42 C16        19.9992   17.3573   33.9193 C.3     1  lig        -0.0538
     43 C17        22.3296   16.7723   33.2741 C.3     1  lig        -0.0659
     44 C18        23.3831   14.6448   33.0312 C.3     1  lig         0.2372
     45 C19        22.0332   15.3355   32.8705 C.3     1  lig        -0.0680
     46 C20        21.6338   15.3084   31.3491 C.3     1  lig        -0.0802
     47 O1         16.4474   20.8115   36.2082 O.2     1  lig        -0.5348
     48 O2         23.5667   13.4105   32.3303 O.3     1  lig        -0.5805
@<TRIPOS>BOND
     1    31    47    2
     2    31    33    1
     3    29    31    1
     4    33    35    1
     5     5    33    1
     6     6    33    1
     7    29    30    2
     8     2    29    1
     9    30    32    1
    10    30    40    1
    11    32    34    1
    12     3    32    1
    13     4    32    1
    14    35    40    1
    15    40    42    1
    16    19    40    1
    17     9    35    1
    18    10    35    1
    19    41    42    1
    20    37    42    1
    21    21    42    1
    22    34    41    1
    23    41    43    1
    24    20    41    1
    25     7    34    1
    26     8    34    1
    27    37    39    1
    28    13    37    1
    29    14    37    1
    30    39    45    1
    31    17    39    1
    32    18    39    1
    33    43    45    1
    34    45    46    1
    35    44    45    1
    36    36    43    1
    37    22    43    1
    38    23    46    1
    39    24    46    1
    40    25    46    1
    41    44    48    1
    42    38    44    1
    43    28    44    1
    44    26    48    1
    45    36    38    1
    46    15    38    1
    47    16    38    1
    48    11    36    1
    49    12    36    1
    50    27    28    3
    51     1    27    1
@<TRIPOS>SUBSTRUCTURE
     1 lig         1 TEMP              0 ****  ****    0 ROOT


########## Name:		ligand
########## HA_RMSDs:		16.2530
########## HA_RMSDh:		16.2149
########## HA_RMSDm:		11.5874
########## Cluster Size:	1
##########    Grid Score:          -12.283641
##########      Grid_vdw:          -10.712232
##########       Grid_es:           -1.571410
##########    Int_energy:            3.145891

@<TRIPOS>MOLECULE
ligand
 48 51 1 0 0
SMALL
No Charge or Current Charge


@<TRIPOS>ATOM
      1 H1         13.9080   17.6147   37.2689 H       1  lig         0.1670
      2 H2         21.7598   22.8951   36.6146 H       1  lig         0.1473
      3 H3         21.4500   20.6443   35.9755 H       1  lig         0.0559
      4 H4         21.2651   20.8044   34.2445 H       1  lig         0.0575
      5 H5         19.4169   25.2255   34.3885 H       1  lig         0.0688
      6 H6         18.5434   25.7380   35.8310 H       1  lig         0.0740
      7 H7         19.4596   19.3793   36.2048 H       1  lig         0.0477
      8 H8         20.2331   18.7331   34.7624 H       1  lig         0.0465
      9 H9         17.3409   24.0099   34.4441 H       1  lig         0.0495
     10 H10        17.5639   23.5274   36.1265 H       1  lig         0.0527
     11 H11        18.4048   16.9563   34.9782 H       1  lig         0.0459
     12 H12        18.6528   17.2929   33.2517 H       1  lig         0.0459
     13 H13        16.6034   21.8523   33.0394 H       1  lig         0.0438
     14 H14        16.0091   22.3168   34.6080 H       1  lig         0.0425
     15 H15        16.7381   16.2337   32.6896 H       1  lig         0.0681
     16 H16        16.4729   15.7241   34.3161 H       1  lig         0.0571
     17 H17        14.6595   20.5021   33.5615 H       1  lig         0.0423
     18 H18        15.2848   20.1357   35.1447 H       1  lig         0.0489
     19 H19        19.0593   22.5926   33.6937 H       1  lig         0.0634
     20 H20        18.8015   20.0157   33.3761 H       1  lig         0.0564
     21 H21        17.6759   21.1230   35.6834 H       1  lig         0.0555
     22 H22        17.2347   18.7663   35.3092 H       1  lig         0.0551
     23 H23        16.7577   18.2023   31.5622 H       1  lig         0.0433
     24 H24        15.5265   19.4352   31.5012 H       1  lig         0.0424
     25 H25        17.2014   19.8931   31.7855 H       1  lig         0.0357
     26 H26        14.1251   16.4044   33.2036 H       1  lig         0.4072
     27 C1         14.4092   17.5868   36.3258 C.1     1  lig        -0.1335
     28 C2         14.9757   17.5661   35.1822 C.1     1  lig        -0.1688
     29 C3         20.8111   23.1232   36.1430 C.2     1  lig        -0.2674
     30 C4         20.0540   22.2047   35.3397 C.2     1  lig        -0.0292
     31 C5         20.2473   24.4967   36.2245 C.2     1  lig         0.5673
     32 C6         20.7122   20.8121   35.1870 C.3     1  lig        -0.0559
     33 C7         19.0593   24.9142   35.3699 C.3     1  lig        -0.1823
     34 C8         19.7309   19.6068   35.1741 C.3     1  lig        -0.0728
     35 C9         18.0856   23.7025   35.1810 C.3     1  lig        -0.0705
     36 C10        17.9438   17.3609   34.0742 C.3     1  lig        -0.0740
     37 C11        16.5096   21.5152   34.0745 C.3     1  lig        -0.0723
     38 C12        16.6471   16.6033   33.7102 C.3     1  lig        -0.0690
     39 C13        15.5778   20.2740   34.1031 C.3     1  lig        -0.0643
     40 C14        18.7951   22.3875   34.7349 C.3     1  lig        -0.0353
     41 C15        18.4197   19.9213   34.3951 C.3     1  lig        -0.0466
     42 C16        17.9337   21.2360   34.6248 C.3     1  lig        -0.0538
     43 C17        17.5267   18.8096   34.2558 C.3     1  lig        -0.0659
     44 C18        15.5054   17.6304   33.7880 C.3     1  lig         0.2372
     45 C19        16.1891   18.9724   33.5493 C.3     1  lig        -0.0680
     46 C20        16.4473   19.1363   32.0061 C.3     1  lig        -0.0802
     47 O1         20.8177   25.2539   36.9324 O.2     1  lig        -0.5348
     48 O2         14.4324   17.2842   32.9064 O.3     1  lig        -0.5805
@<TRIPOS>BOND
     1    31    47    2
     2    31    33    1
     3    29    31    1
     4    33    35    1
     5     5    33    1
     6     6    33    1
     7    29    30    2
     8     2    29    1
     9    30    32    1
    10    30    40    1
    11    32    34    1
    12     3    32    1
    13     4    32    1
    14    35    40    1
    15    40    42    1
    16    19    40    1
    17     9    35    1
    18    10    35    1
    19    41    42    1
    20    37    42    1
    21    21    42    1
    22    34    41    1
    23    41    43    1
    24    20    41    1
    25     7    34    1
    26     8    34    1
    27    37    39    1
    28    13    37    1
    29    14    37    1
    30    39    45    1
    31    17    39    1
    32    18    39    1
    33    43    45    1
    34    45    46    1
    35    44    45    1
    36    36    43    1
    37    22    43    1
    38    23    46    1
    39    24    46    1
    40    25    46    1
    41    44    48    1
    42    38    44    1
    43    28    44    1
    44    26    48    1
    45    36    38    1
    46    15    38    1
    47    16    38    1
    48    11    36    1
    49    12    36    1
    50    27    28    3
    51     1    27    1
@<TRIPOS>SUBSTRUCTURE
     1 lig         1 TEMP              0 ****  ****    0 ROOT


########## Name:		ligand
########## HA_RMSDs:		15.4711
########## HA_RMSDh:		15.2235
########## HA_RMSDm:		8.9928
########## Cluster Size:	1
##########    Grid Score:          -12.232850
##########      Grid_vdw:          -12.166836
##########       Grid_es:           -0.066014
##########    Int_energy:            3.247399

@<TRIPOS>MOLECULE
ligand
 48 51 1 0 0
SMALL
No Charge or Current Charge


@<TRIPOS>ATOM
      1 H1         15.8126   17.2823   30.5068 H       1  lig         0.1670
      2 H2         24.7143   17.5226   32.5202 H       1  lig         0.1473
      3 H3         23.1345   19.2741   32.4385 H       1  lig         0.0559
      4 H4         22.8503   19.5557   34.1403 H       1  lig         0.0575
      5 H5         23.7881   15.0588   35.5114 H       1  lig         0.0688
      6 H6         23.5352   13.7465   34.3622 H       1  lig         0.0740
      7 H7         20.8252   19.0625   31.9519 H       1  lig         0.0477
      8 H8         20.9219   20.4215   33.0655 H       1  lig         0.0465
      9 H9         21.4135   14.8118   35.2104 H       1  lig         0.0495
     10 H10        21.5448   14.8149   33.4510 H       1  lig         0.0527
     11 H11        18.4617   20.7003   32.4205 H       1  lig         0.0459
     12 H12        18.6323   21.0881   34.1457 H       1  lig         0.0459
     13 H13        19.4354   16.4759   35.9107 H       1  lig         0.0438
     14 H14        19.4020   15.3209   34.6090 H       1  lig         0.0425
     15 H15        16.3983   20.9931   34.4685 H       1  lig         0.0681
     16 H16        16.1053   20.7586   32.7848 H       1  lig         0.0571
     17 H17        17.1546   16.2700   35.1170 H       1  lig         0.0423
     18 H18        17.6688   16.4392   33.4622 H       1  lig         0.0489
     19 H19        21.9508   17.0948   35.3655 H       1  lig         0.0634
     20 H20        20.2746   19.0329   34.8735 H       1  lig         0.0564
     21 H21        20.2525   16.8649   33.1082 H       1  lig         0.0555
     22 H22        18.5397   18.5463   32.7508 H       1  lig         0.0551
     23 H23        17.3584   19.8159   36.1535 H       1  lig         0.0433
     24 H24        17.0173   18.1884   36.6777 H       1  lig         0.0424
     25 H25        18.6862   18.6944   36.4445 H       1  lig         0.0357
     26 H26        14.7006   17.9578   34.5193 H       1  lig         0.4072
     27 C1         15.8804   17.7158   31.4809 C.1     1  lig        -0.1335
     28 C2         15.9995   18.2383   32.6394 C.1     1  lig        -0.1688
     29 C3         23.9988   16.9509   33.0995 C.2     1  lig        -0.2674
     30 C4         22.7655   17.4702   33.6206 C.2     1  lig        -0.0292
     31 C5         24.3034   15.5488   33.4901 C.2     1  lig         0.5673
     32 C6         22.5190   18.9611   33.2856 C.3     1  lig        -0.0559
     33 C7         23.4465   14.8089   34.5071 C.3     1  lig        -0.1823
     34 C8         21.0432   19.3429   32.9823 C.3     1  lig        -0.0728
     35 C9         21.9510   15.2517   34.3679 C.3     1  lig        -0.0705
     36 C10        18.1904   20.3943   33.4336 C.3     1  lig        -0.0740
     37 C11        19.3036   16.3788   34.8304 C.3     1  lig        -0.0723
     38 C12        16.6573   20.3561   33.6238 C.3     1  lig        -0.0690
     39 C13        17.8540   16.8039   34.4733 C.3     1  lig        -0.0643
     40 C14        21.7524   16.7980   34.3319 C.3     1  lig        -0.0353
     41 C15        20.0376   18.5908   33.9032 C.3     1  lig        -0.0466
     42 C16        20.3927   17.2344   34.1298 C.3     1  lig        -0.0538
     43 C17        18.6701   18.9874   33.7434 C.3     1  lig        -0.0659
     44 C18        16.2940   18.8972   33.9461 C.3     1  lig         0.2372
     45 C19        17.5682   18.3162   34.5498 C.3     1  lig        -0.0680
     46 C20        17.6751   18.7892   36.0464 C.3     1  lig        -0.0802
     47 O1         25.2816   15.0771   33.0206 O.2     1  lig        -0.5348
     48 O2         15.1066   18.8196   34.7414 O.3     1  lig        -0.5805
@<TRIPOS>BOND
     1    31    47    2
     2    31    33    1
     3    29    31    1
     4    33    35    1
     5     5    33    1
     6     6    33    1
     7    29    30    2
     8     2    29    1
     9    30    32    1
    10    30    40    1
    11    32    34    1
    12     3    32    1
    13     4    32    1
    14    35    40    1
    15    40    42    1
    16    19    40    1
    17     9    35    1
    18    10    35    1
    19    41    42    1
    20    37    42    1
    21    21    42    1
    22    34    41    1
    23    41    43    1
    24    20    41    1
    25     7    34    1
    26     8    34    1
    27    37    39    1
    28    13    37    1
    29    14    37    1
    30    39    45    1
    31    17    39    1
    32    18    39    1
    33    43    45    1
    34    45    46    1
    35    44    45    1
    36    36    43    1
    37    22    43    1
    38    23    46    1
    39    24    46    1
    40    25    46    1
    41    44    48    1
    42    38    44    1
    43    28    44    1
    44    26    48    1
    45    36    38    1
    46    15    38    1
    47    16    38    1
    48    11    36    1
    49    12    36    1
    50    27    28    3
    51     1    27    1
@<TRIPOS>SUBSTRUCTURE
     1 lig         1 TEMP              0 ****  ****    0 ROOT


########## Name:		ligand
########## HA_RMSDs:		17.2372
########## HA_RMSDh:		17.2372
########## HA_RMSDm:		13.8618
########## Cluster Size:	3
##########    Grid Score:          -11.762621
##########      Grid_vdw:          -11.219980
##########       Grid_es:           -0.542641
##########    Int_energy:            3.239682

@<TRIPOS>MOLECULE
ligand
 48 51 1 0 0
SMALL
No Charge or Current Charge


@<TRIPOS>ATOM
      1 H1          5.8570   28.0614   12.1154 H       1  lig         0.1670
      2 H2          7.2759   19.5780    9.0341 H       1  lig         0.1473
      3 H3          7.4621   20.4465   11.2207 H       1  lig         0.0559
      4 H4          6.0072   19.8202   11.9607 H       1  lig         0.0575
      5 H5          3.4563   19.6759    7.9043 H       1  lig         0.0688
      6 H6          3.8626   20.7913    6.6013 H       1  lig         0.0740
      7 H7          7.0049   22.6721   11.8929 H       1  lig         0.0477
      8 H8          6.5932   21.6913   13.2945 H       1  lig         0.0465
      9 H9          2.8038   21.8809    8.6132 H       1  lig         0.0495
     10 H10         4.3628   22.5814    8.1756 H       1  lig         0.0527
     11 H11         6.4051   23.9777   14.4274 H       1  lig         0.0459
     12 H12         5.1268   22.9283   15.0760 H       1  lig         0.0459
     13 H13         2.1475   22.7482   11.0606 H       1  lig         0.0438
     14 H14         2.8196   23.7047    9.7711 H       1  lig         0.0425
     15 H15         4.0437   24.6841   15.9967 H       1  lig         0.0681
     16 H16         5.3019   25.7738   15.5436 H       1  lig         0.0571
     17 H17         1.9663   25.0900   11.6585 H       1  lig         0.0423
     18 H18         3.6300   25.3732   11.2302 H       1  lig         0.0489
     19 H19         3.7162   20.7097   10.4354 H       1  lig         0.0634
     20 H20         4.2923   21.7954   12.7369 H       1  lig         0.0564
     21 H21         4.9851   23.2439   10.4481 H       1  lig         0.0555
     22 H22         5.3360   24.3712   12.5681 H       1  lig         0.0551
     23 H23         2.4820   23.4339   14.9266 H       1  lig         0.0433
     24 H24         1.3004   23.9408   13.7491 H       1  lig         0.0424
     25 H25         2.2667   22.5018   13.4466 H       1  lig         0.0357
     26 H26         2.9239   26.9757   15.2298 H       1  lig         0.4072
     27 C1          5.2021   27.4301   12.6758 C.1     1  lig        -0.1335
     28 C2          4.4403   26.6452   13.3339 C.1     1  lig        -0.1688
     29 C3          6.3158   20.0745    8.9561 C.2     1  lig        -0.2674
     30 C4          5.6386   20.7233   10.0436 C.2     1  lig        -0.0292
     31 C5          5.5564   20.0363    7.6782 C.2     1  lig         0.5673
     32 C6          6.4038   20.6618   11.3876 C.3     1  lig        -0.0559
     33 C7          4.1079   20.4974    7.6068 C.3     1  lig        -0.1823
     34 C8          6.2999   21.9339   12.2747 C.3     1  lig        -0.0728
     35 C9          3.8791   21.6929    8.5918 C.3     1  lig        -0.0705
     36 C10         5.3253   23.8252   14.4930 C.3     1  lig        -0.0740
     37 C11         2.9942   23.3850   10.7933 C.3     1  lig        -0.0723
     38 C12         4.6191   25.0369   15.1418 C.3     1  lig        -0.0690
     39 C13         2.9619   24.6475   11.6959 C.3     1  lig        -0.0643
     40 C14         4.4246   21.4376   10.0302 C.3     1  lig        -0.0353
     41 C15         4.8781   22.5678   12.2337 C.3     1  lig        -0.0466
     42 C16         4.2943   22.5499   10.9391 C.3     1  lig        -0.0538
     43 C17         4.6938   23.6784   13.1199 C.3     1  lig        -0.0659
     44 C18         3.6668   25.6078   14.0779 C.3     1  lig         0.2372
     45 C19         3.3678   24.4232   13.1654 C.3     1  lig        -0.0680
     46 C20         2.2963   23.5085   13.8656 C.3     1  lig        -0.0802
     47 O1          6.1193   19.5645    6.7506 O.2     1  lig        -0.5348
     48 O2          2.5446   26.2609   14.6801 O.3     1  lig        -0.5805
@<TRIPOS>BOND
     1    31    47    2
     2    31    33    1
     3    29    31    1
     4    33    35    1
     5     5    33    1
     6     6    33    1
     7    29    30    2
     8     2    29    1
     9    30    32    1
    10    30    40    1
    11    32    34    1
    12     3    32    1
    13     4    32    1
    14    35    40    1
    15    40    42    1
    16    19    40    1
    17     9    35    1
    18    10    35    1
    19    41    42    1
    20    37    42    1
    21    21    42    1
    22    34    41    1
    23    41    43    1
    24    20    41    1
    25     7    34    1
    26     8    34    1
    27    37    39    1
    28    13    37    1
    29    14    37    1
    30    39    45    1
    31    17    39    1
    32    18    39    1
    33    43    45    1
    34    45    46    1
    35    44    45    1
    36    36    43    1
    37    22    43    1
    38    23    46    1
    39    24    46    1
    40    25    46    1
    41    44    48    1
    42    38    44    1
    43    28    44    1
    44    26    48    1
    45    36    38    1
    46    15    38    1
    47    16    38    1
    48    11    36    1
    49    12    36    1
    50    27    28    3
    51     1    27    1
@<TRIPOS>SUBSTRUCTURE
     1 lig         1 TEMP              0 ****  ****    0 ROOT


########## Name:		ligand
########## HA_RMSDs:		19.0682
########## HA_RMSDh:		18.9623
########## HA_RMSDm:		14.5737
########## Cluster Size:	1
##########    Grid Score:          -11.697050
##########      Grid_vdw:          -11.600899
##########       Grid_es:           -0.096152
##########    Int_energy:            3.266413

@<TRIPOS>MOLECULE
ligand
 48 51 1 0 0
SMALL
No Charge or Current Charge


@<TRIPOS>ATOM
      1 H1          4.7223   20.0499   12.3327 H       1  lig         0.1670
      2 H2          0.9240   23.7842    4.9351 H       1  lig         0.1473
      3 H3          2.1570   24.8023    6.6710 H       1  lig         0.0559
      4 H4          3.6963   25.0664    5.8854 H       1  lig         0.0575
      5 H5          3.3176   21.3536    2.8764 H       1  lig         0.0688
      6 H6          2.3315   19.9709    3.3481 H       1  lig         0.0740
      7 H7          3.1418   23.7053    8.5260 H       1  lig         0.0477
      8 H8          4.2040   25.0701    8.2017 H       1  lig         0.0465
      9 H9          4.4782   20.2113    4.6480 H       1  lig         0.0495
     10 H10         3.0422   20.1490    5.6711 H       1  lig         0.0527
     11 H11         5.2527   24.3590   10.4246 H       1  lig         0.0459
     12 H12         6.5546   24.8940    9.3408 H       1  lig         0.0459
     13 H13         6.5392   21.0496    6.1388 H       1  lig         0.0438
     14 H14         5.3327   19.8849    6.6052 H       1  lig         0.0425
     15 H15         8.1404   23.9858   10.6691 H       1  lig         0.0681
     16 H16         6.9743   23.5490   11.8629 H       1  lig         0.0571
     17 H17         7.2708   19.9485    8.1702 H       1  lig         0.0423
     18 H18         5.7152   20.1907    8.9138 H       1  lig         0.0489
     19 H19         4.7122   22.5334    4.9272 H       1  lig         0.0634
     20 H20         5.7233   23.6609    7.0519 H       1  lig         0.0564
     21 H21         3.9571   21.5342    7.4696 H       1  lig         0.0555
     22 H22         5.0447   22.4195    9.4500 H       1  lig         0.0551
     23 H23         8.6306   23.3694    8.5415 H       1  lig         0.0433
     24 H24         8.9278   21.7712    7.9113 H       1  lig         0.0424
     25 H25         7.8332   22.8522    7.0575 H       1  lig         0.0357
     26 H26         8.7386   20.5798   10.3773 H       1  lig         0.4072
     27 C1          5.5167   20.5541   11.8268 C.1     1  lig        -0.1335
     28 C2          6.4402   21.1707   11.1972 C.1     1  lig        -0.1688
     29 C3          1.6945   23.0242    4.8806 C.2     1  lig        -0.2674
     30 C4          2.9447   23.0735    5.5855 C.2     1  lig        -0.0292
     31 C5          1.5406   21.8688    3.9573 C.2     1  lig         0.5673
     32 C6          3.1233   24.3365    6.4622 C.3     1  lig        -0.0559
     33 C7          2.7020   20.9286    3.6691 C.3     1  lig        -0.1823
     34 C8          3.8583   24.1136    7.8135 C.3     1  lig        -0.0728
     35 C9          3.5872   20.7654    4.9503 C.3     1  lig        -0.0705
     36 C10         6.1396   24.0401    9.8721 C.3     1  lig        -0.0740
     37 C11         5.7672   20.8398    6.8830 C.3     1  lig        -0.0723
     38 C12         7.2089   23.4397   10.8124 C.3     1  lig        -0.0690
     39 C13         6.4531   20.6634    8.2643 C.3     1  lig        -0.0643
     40 C14         3.9782   22.1171    5.6226 C.3     1  lig        -0.0353
     41 C15         5.0335   23.0999    7.6863 C.3     1  lig        -0.0466
     42 C16         4.7313   21.9950    6.8465 C.3     1  lig        -0.0538
     43 C17         5.8162   22.9409    8.8757 C.3     1  lig        -0.0659
     44 C18         7.3965   21.9757   10.3811 C.3     1  lig         0.2372
     45 C19         6.9771   21.9581    8.9152 C.3     1  lig        -0.0680
     46 C20         8.1578   22.5330    8.0488 C.3     1  lig        -0.0802
     47 O1          0.4942   21.7708    3.4140 O.2     1  lig        -0.5348
     48 O2          8.7152   21.5086   10.6833 O.3     1  lig        -0.5805
@<TRIPOS>BOND
     1    31    47    2
     2    31    33    1
     3    29    31    1
     4    33    35    1
     5     5    33    1
     6     6    33    1
     7    29    30    2
     8     2    29    1
     9    30    32    1
    10    30    40    1
    11    32    34    1
    12     3    32    1
    13     4    32    1
    14    35    40    1
    15    40    42    1
    16    19    40    1
    17     9    35    1
    18    10    35    1
    19    41    42    1
    20    37    42    1
    21    21    42    1
    22    34    41    1
    23    41    43    1
    24    20    41    1
    25     7    34    1
    26     8    34    1
    27    37    39    1
    28    13    37    1
    29    14    37    1
    30    39    45    1
    31    17    39    1
    32    18    39    1
    33    43    45    1
    34    45    46    1
    35    44    45    1
    36    36    43    1
    37    22    43    1
    38    23    46    1
    39    24    46    1
    40    25    46    1
    41    44    48    1
    42    38    44    1
    43    28    44    1
    44    26    48    1
    45    36    38    1
    46    15    38    1
    47    16    38    1
    48    11    36    1
    49    12    36    1
    50    27    28    3
    51     1    27    1
@<TRIPOS>SUBSTRUCTURE
     1 lig         1 TEMP              0 ****  ****    0 ROOT


########## Name:		ligand
########## HA_RMSDs:		16.6193
########## HA_RMSDh:		16.5698
########## HA_RMSDm:		11.0768
########## Cluster Size:	1
##########    Grid Score:          -11.667904
##########      Grid_vdw:          -11.738102
##########       Grid_es:            0.070198
##########    Int_energy:            3.004396

@<TRIPOS>MOLECULE
ligand
 48 51 1 0 0
SMALL
No Charge or Current Charge


@<TRIPOS>ATOM
      1 H1         13.9889   28.1645   31.7072 H       1  lig         0.1670
      2 H2         18.0808   19.4842   32.4482 H       1  lig         0.1473
      3 H3         18.6023   21.5234   33.5158 H       1  lig         0.0559
      4 H4         17.9193   21.2607   35.1035 H       1  lig         0.0575
      5 H5         14.4755   18.2683   33.6310 H       1  lig         0.0688
      6 H6         13.8799   18.4013   31.9774 H       1  lig         0.0740
      7 H7         17.4771   23.5887   33.2278 H       1  lig         0.0477
      8 H8         18.0430   23.6196   34.8937 H       1  lig         0.0465
      9 H9         13.2095   20.3093   33.4826 H       1  lig         0.0495
     10 H10        14.0499   20.8308   32.0216 H       1  lig         0.0527
     11 H11        17.2724   26.0559   34.7638 H       1  lig         0.0459
     12 H12        16.8903   25.4369   36.3845 H       1  lig         0.0459
     13 H13        13.1199   22.3744   35.1857 H       1  lig         0.0438
     14 H14        12.8196   22.4342   33.4723 H       1  lig         0.0425
     15 H15        15.5352   27.1911   36.8209 H       1  lig         0.0681
     16 H16        15.9497   27.9576   35.3321 H       1  lig         0.0571
     17 H17        12.1481   24.5278   34.6450 H       1  lig         0.0423
     18 H18        13.2613   24.7478   33.3245 H       1  lig         0.0489
     19 H19        15.1036   20.6579   34.8302 H       1  lig         0.0634
     20 H20        15.8933   22.9973   35.6735 H       1  lig         0.0564
     21 H21        15.0535   22.8314   33.0119 H       1  lig         0.0555
     22 H22        15.5759   25.0567   33.8266 H       1  lig         0.0551
     23 H23        14.4184   25.3214   37.4565 H       1  lig         0.0433
     24 H24        12.8116   24.8091   37.0147 H       1  lig         0.0424
     25 H25        14.1419   23.6601   36.9379 H       1  lig         0.0357
     26 H26        13.2581   27.0922   36.8929 H       1  lig         0.4072
     27 C1         14.0350   27.6855   32.6611 C.1     1  lig        -0.1335
     28 C2         14.0969   27.1476   33.8170 C.1     1  lig        -0.1688
     29 C3         17.0383   19.6705   32.6781 C.2     1  lig        -0.2674
     30 C4         16.5625   20.7317   33.5205 C.2     1  lig        -0.0292
     31 C5         15.9870   18.7404   32.1874 C.2     1  lig         0.5673
     32 C6         17.6848   21.6259   34.1007 C.3     1  lig        -0.0559
     33 C7         14.5561   18.8264   32.6982 C.3     1  lig        -0.1823
     34 C8         17.3444   23.1384   34.2114 C.3     1  lig        -0.0728
     35 C9         14.1788   20.3197   32.9802 C.3     1  lig        -0.0705
     36 C10        16.4635   25.8076   35.4549 C.3     1  lig        -0.0740
     37 C11        13.4539   22.8383   34.2546 C.3     1  lig        -0.0723
     38 C12        15.5672   27.0329   35.7436 C.3     1  lig        -0.0690
     39 C13        13.1826   24.3642   34.3425 C.3     1  lig        -0.0643
     40 C14        15.2355   21.0865   33.8329 C.3     1  lig        -0.0353
     41 C15        15.8705   23.3812   34.6512 C.3     1  lig        -0.0466
     42 C16        14.9506   22.4842   34.0458 C.3     1  lig        -0.0538
     43 C17        15.5336   24.7553   34.8775 C.3     1  lig        -0.0659
     44 C18        14.1619   26.6757   35.2318 C.3     1  lig         0.2372
     45 C19        14.1203   25.1521   35.2776 C.3     1  lig        -0.0680
     46 C20        13.8688   24.7017   36.7639 C.3     1  lig        -0.0802
     47 O1         16.3448   17.8962   31.4396 O.2     1  lig        -0.5348
     48 O2         13.1484   27.3737   35.9625 O.3     1  lig        -0.5805
@<TRIPOS>BOND
     1    31    47    2
     2    31    33    1
     3    29    31    1
     4    33    35    1
     5     5    33    1
     6     6    33    1
     7    29    30    2
     8     2    29    1
     9    30    32    1
    10    30    40    1
    11    32    34    1
    12     3    32    1
    13     4    32    1
    14    35    40    1
    15    40    42    1
    16    19    40    1
    17     9    35    1
    18    10    35    1
    19    41    42    1
    20    37    42    1
    21    21    42    1
    22    34    41    1
    23    41    43    1
    24    20    41    1
    25     7    34    1
    26     8    34    1
    27    37    39    1
    28    13    37    1
    29    14    37    1
    30    39    45    1
    31    17    39    1
    32    18    39    1
    33    43    45    1
    34    45    46    1
    35    44    45    1
    36    36    43    1
    37    22    43    1
    38    23    46    1
    39    24    46    1
    40    25    46    1
    41    44    48    1
    42    38    44    1
    43    28    44    1
    44    26    48    1
    45    36    38    1
    46    15    38    1
    47    16    38    1
    48    11    36    1
    49    12    36    1
    50    27    28    3
    51     1    27    1
@<TRIPOS>SUBSTRUCTURE
     1 lig         1 TEMP              0 ****  ****    0 ROOT


########## Name:		ligand
########## HA_RMSDs:		18.5147
########## HA_RMSDh:		18.1783
########## HA_RMSDm:		12.9520
########## Cluster Size:	2
##########    Grid Score:          -11.448057
##########      Grid_vdw:          -11.216274
##########       Grid_es:           -0.231783
##########    Int_energy:            3.221134

@<TRIPOS>MOLECULE
ligand
 48 51 1 0 0
SMALL
No Charge or Current Charge


@<TRIPOS>ATOM
      1 H1         29.8996   18.0925   37.0199 H       1  lig         0.1670
      2 H2         21.9723   15.4268   33.2960 H       1  lig         0.1473
      3 H3         23.9473   16.2111   32.2692 H       1  lig         0.0559
      4 H4         24.6189   14.7237   31.6425 H       1  lig         0.0575
      5 H5         22.6931   11.9000   35.0041 H       1  lig         0.0688
      6 H6         22.3307   12.5844   36.5874 H       1  lig         0.0740
      7 H7         25.9591   16.8124   33.3671 H       1  lig         0.0477
      8 H8         26.4748   16.1910   31.8038 H       1  lig         0.0465
      9 H9         24.7910   12.3210   36.1048 H       1  lig         0.0495
     10 H10        24.3346   13.9683   36.5419 H       1  lig         0.0527
     11 H11        28.7406   17.1130   32.5539 H       1  lig         0.0459
     12 H12        29.0210   15.5962   31.6728 H       1  lig         0.0459
     13 H13        27.2627   12.3765   35.0751 H       1  lig         0.0438
     14 H14        26.7112   13.2350   36.4851 H       1  lig         0.0425
     15 H15        31.1497   15.4652   32.4180 H       1  lig         0.0681
     16 H16        31.0366   17.0034   33.1904 H       1  lig         0.0571
     17 H17        29.1911   13.2664   36.2428 H       1  lig         0.0423
     18 H18        28.4438   14.8336   36.3732 H       1  lig         0.0489
     19 H19        24.9801   12.8598   33.8247 H       1  lig         0.0634
     20 H20        27.0218   14.0996   32.7748 H       1  lig         0.0564
     21 H21        26.0772   15.0684   35.2215 H       1  lig         0.0555
     22 H22        28.1042   16.1021   34.3782 H       1  lig         0.0551
     23 H23        30.2273   13.4110   32.6940 H       1  lig         0.0433
     24 H24        30.1737   12.4249   34.1307 H       1  lig         0.0424
     25 H25        28.7113   12.6550   33.1798 H       1  lig         0.0357
     26 H26        31.6725   14.1897   35.6025 H       1  lig         0.4072
     27 C1         30.1313   17.2904   36.3533 C.1     1  lig        -0.1335
     28 C2         30.3757   16.3398   35.5372 C.1     1  lig        -0.1688
     29 C3         22.5873   14.7624   33.8916 C.2     1  lig        -0.2674
     30 C4         23.9937   14.5507   33.6934 C.2     1  lig        -0.0292
     31 C5         21.9684   13.9157   34.9457 C.2     1  lig         0.5673
     32 C6         24.5945   15.3683   32.5244 C.3     1  lig        -0.0559
     33 C7         22.7501   12.7974   35.6199 C.3     1  lig        -0.1823
     34 C8         26.0319   15.9116   32.7581 C.3     1  lig        -0.0728
     35 C9         24.2548   13.2074   35.7600 C.3     1  lig        -0.0705
     36 C10        29.0985   16.0846   32.6419 C.3     1  lig        -0.0740
     37 C11        27.1529   13.3755   35.5039 C.3     1  lig        -0.0723
     38 C12        30.5612   16.0329   33.1376 C.3     1  lig        -0.0690
     39 C13        28.5681   13.9809   35.7044 C.3     1  lig        -0.0643
     40 C14        24.8836   13.7566   34.4429 C.3     1  lig        -0.0353
     41 C15        26.9313   14.8935   33.5194 C.3     1  lig        -0.0466
     42 C16        26.2472   14.2115   34.5606 C.3     1  lig        -0.0538
     43 C17        28.2986   15.2965   33.6640 C.3     1  lig        -0.0659
     44 C18        30.5392   15.2932   34.4854 C.3     1  lig         0.2372
     45 C19        29.2901   14.4212   34.4162 C.3     1  lig        -0.0680
     46 C20        29.6115   13.1530   33.5426 C.3     1  lig        -0.0802
     47 O1         20.8247   14.1172   35.1723 O.2     1  lig        -0.5348
     48 O2         31.7813   14.6270   34.7343 O.3     1  lig        -0.5805
@<TRIPOS>BOND
     1    31    47    2
     2    31    33    1
     3    29    31    1
     4    33    35    1
     5     5    33    1
     6     6    33    1
     7    29    30    2
     8     2    29    1
     9    30    32    1
    10    30    40    1
    11    32    34    1
    12     3    32    1
    13     4    32    1
    14    35    40    1
    15    40    42    1
    16    19    40    1
    17     9    35    1
    18    10    35    1
    19    41    42    1
    20    37    42    1
    21    21    42    1
    22    34    41    1
    23    41    43    1
    24    20    41    1
    25     7    34    1
    26     8    34    1
    27    37    39    1
    28    13    37    1
    29    14    37    1
    30    39    45    1
    31    17    39    1
    32    18    39    1
    33    43    45    1
    34    45    46    1
    35    44    45    1
    36    36    43    1
    37    22    43    1
    38    23    46    1
    39    24    46    1
    40    25    46    1
    41    44    48    1
    42    38    44    1
    43    28    44    1
    44    26    48    1
    45    36    38    1
    46    15    38    1
    47    16    38    1
    48    11    36    1
    49    12    36    1
    50    27    28    3
    51     1    27    1
@<TRIPOS>SUBSTRUCTURE
     1 lig         1 TEMP              0 ****  ****    0 ROOT


########## Name:		ligand
########## HA_RMSDs:		16.2434
########## HA_RMSDh:		16.1318
########## HA_RMSDm:		10.2820
########## Cluster Size:	1
##########    Grid Score:          -11.420650
##########      Grid_vdw:          -11.029972
##########       Grid_es:           -0.390679
##########    Int_energy:            3.131809

@<TRIPOS>MOLECULE
ligand
 48 51 1 0 0
SMALL
No Charge or Current Charge


@<TRIPOS>ATOM
      1 H1         27.3758   23.9600   33.5259 H       1  lig         0.1670
      2 H2         23.0444   15.5593   34.5310 H       1  lig         0.1473
      3 H3         23.3132   17.2732   36.1311 H       1  lig         0.0559
      4 H4         21.7337   18.0217   36.0967 H       1  lig         0.0575
      5 H5         20.7988   16.9078   31.5286 H       1  lig         0.0688
      6 H6         22.1447   16.6858   30.4124 H       1  lig         0.0740
      7 H7         24.4421   19.3316   35.8100 H       1  lig         0.0477
      8 H8         23.1667   19.6998   36.9650 H       1  lig         0.0465
      9 H9         21.7742   19.0722   31.1359 H       1  lig         0.0495
     10 H10        23.4109   18.4914   31.4468 H       1  lig         0.0527
     11 H11        24.4193   21.9240   37.1394 H       1  lig         0.0459
     12 H12        22.6774   22.2565   37.2437 H       1  lig         0.0459
     13 H13        21.4212   21.3589   32.4847 H       1  lig         0.0438
     14 H14        22.8296   20.9073   31.5671 H       1  lig         0.0425
     15 H15        22.9995   24.4671   36.9069 H       1  lig         0.0681
     16 H16        24.7143   24.2820   36.9358 H       1  lig         0.0571
     17 H17        22.8335   23.3112   32.2233 H       1  lig         0.0423
     18 H18        24.2420   22.4119   32.7121 H       1  lig         0.0489
     19 H19        21.1599   18.8878   33.3972 H       1  lig         0.0634
     20 H20        21.8194   20.6114   35.2417 H       1  lig         0.0564
     21 H21        23.8070   19.9003   33.4085 H       1  lig         0.0555
     22 H22        24.3844   21.6613   34.9750 H       1  lig         0.0551
     23 H23        21.2966   23.8346   35.5479 H       1  lig         0.0433
     24 H24        21.1193   24.0903   33.8325 H       1  lig         0.0424
     25 H25        20.8103   22.4961   34.5099 H       1  lig         0.0357
     26 H26        22.4948   25.5789   34.9809 H       1  lig         0.4072
     27 C1         26.4047   23.9780   33.9709 C.1     1  lig        -0.1335
     28 C2         25.2335   24.0256   34.4763 C.1     1  lig        -0.1688
     29 C3         22.7705   16.3219   33.8114 C.2     1  lig        -0.2674
     30 C4         22.5424   17.7036   34.1291 C.2     1  lig        -0.0292
     31 C5         22.5108   15.9533   32.3943 C.2     1  lig         0.5673
     32 C6         22.7209   18.0421   35.6288 C.3     1  lig        -0.0559
     33 C7         21.8831   16.9431   31.4237 C.3     1  lig        -0.1823
     34 C8         23.3629   19.4252   35.9301 C.3     1  lig        -0.0728
     35 C9         22.3658   18.3953   31.7555 C.3     1  lig        -0.0705
     36 C10        23.5733   22.4072   36.6451 C.3     1  lig        -0.0740
     37 C11        22.4985   21.1931   32.5603 C.3     1  lig        -0.0723
     38 C12        23.8204   23.9195   36.4458 C.3     1  lig        -0.0690
     39 C13        23.1783   22.5426   32.9154 C.3     1  lig        -0.0643
     40 C14        22.2390   18.7725   33.2633 C.3     1  lig        -0.0353
     41 C15        22.8692   20.5311   34.9511 C.3     1  lig        -0.0466
     42 C16        22.7452   20.0775   33.6109 C.3     1  lig        -0.0538
     43 C17        23.3428   21.8494   35.2518 C.3     1  lig        -0.0659
     44 C18        23.8176   24.1656   34.9279 C.3     1  lig         0.2372
     45 C19        22.9734   23.0281   34.3634 C.3     1  lig        -0.0680
     46 C20        21.4545   23.3733   34.5846 C.3     1  lig        -0.0802
     47 O1         22.7535   14.8352   32.0930 O.2     1  lig        -0.5348
     48 O2         23.3994   25.4986   34.6172 O.3     1  lig        -0.5805
@<TRIPOS>BOND
     1    31    47    2
     2    31    33    1
     3    29    31    1
     4    33    35    1
     5     5    33    1
     6     6    33    1
     7    29    30    2
     8     2    29    1
     9    30    32    1
    10    30    40    1
    11    32    34    1
    12     3    32    1
    13     4    32    1
    14    35    40    1
    15    40    42    1
    16    19    40    1
    17     9    35    1
    18    10    35    1
    19    41    42    1
    20    37    42    1
    21    21    42    1
    22    34    41    1
    23    41    43    1
    24    20    41    1
    25     7    34    1
    26     8    34    1
    27    37    39    1
    28    13    37    1
    29    14    37    1
    30    39    45    1
    31    17    39    1
    32    18    39    1
    33    43    45    1
    34    45    46    1
    35    44    45    1
    36    36    43    1
    37    22    43    1
    38    23    46    1
    39    24    46    1
    40    25    46    1
    41    44    48    1
    42    38    44    1
    43    28    44    1
    44    26    48    1
    45    36    38    1
    46    15    38    1
    47    16    38    1
    48    11    36    1
    49    12    36    1
    50    27    28    3
    51     1    27    1
@<TRIPOS>SUBSTRUCTURE
     1 lig         1 TEMP              0 ****  ****    0 ROOT


########## Name:		ligand
########## HA_RMSDs:		18.4909
########## HA_RMSDh:		18.3081
########## HA_RMSDm:		14.4402
########## Cluster Size:	1
##########    Grid Score:          -11.397951
##########      Grid_vdw:          -10.685637
##########       Grid_es:           -0.712314
##########    Int_energy:            3.009096

@<TRIPOS>MOLECULE
ligand
 48 51 1 0 0
SMALL
No Charge or Current Charge


@<TRIPOS>ATOM
      1 H1         28.6306   10.5264   27.9984 H       1  lig         0.1670
      2 H2         28.3989   17.2771   34.8187 H       1  lig         0.1473
      3 H3         29.0245   15.0036   34.9208 H       1  lig         0.0559
      4 H4         30.7676   15.1316   34.9567 H       1  lig         0.0575
      5 H5         30.9754   19.2440   32.5017 H       1  lig         0.0688
      6 H6         29.6775   19.6300   31.3734 H       1  lig         0.0740
      7 H7         29.0417   13.4681   33.1164 H       1  lig         0.0477
      8 H8         30.3501   12.9355   34.1655 H       1  lig         0.0465
      9 H9         31.1773   17.7448   30.6304 H       1  lig         0.0495
     10 H10        29.4700   17.3030   30.6840 H       1  lig         0.0527
     11 H11        30.3472   10.9164   32.5939 H       1  lig         0.0459
     12 H12        32.0306   11.2809   33.0287 H       1  lig         0.0459
     13 H13        32.6217   15.5007   30.4062 H       1  lig         0.0438
     14 H14        31.1598   15.8793   29.5409 H       1  lig         0.0425
     15 H15        32.8257    9.9580   31.3789 H       1  lig         0.0681
     16 H16        31.2399    9.4196   30.9656 H       1  lig         0.0571
     17 H17        32.3407   13.8882   28.6187 H       1  lig         0.0423
     18 H18        30.6792   13.6185   29.0641 H       1  lig         0.0489
     19 H19        31.6542   16.5854   32.6186 H       1  lig         0.0634
     20 H20        31.9471   13.9973   32.7733 H       1  lig         0.0564
     21 H21        29.8404   14.9381   31.1941 H       1  lig         0.0555
     22 H22        30.2193   12.5417   31.1458 H       1  lig         0.0551
     23 H23        33.9831   11.9066   31.2767 H       1  lig         0.0433
     24 H24        34.2390   12.9510   29.9043 H       1  lig         0.0424
     25 H25        33.7385   13.6439   31.4423 H       1  lig         0.0357
     26 H26        32.9484   11.2764   28.1735 H       1  lig         0.4072
     27 C1         29.5376   10.7735   28.5060 C.1     1  lig        -0.1335
     28 C2         30.6276   11.0311   29.1182 C.1     1  lig        -0.1688
     29 C3         29.0007   17.3663   33.9219 C.2     1  lig        -0.2674
     30 C4         29.8795   16.3473   33.4205 C.2     1  lig        -0.0292
     31 C5         29.0274   18.6456   33.1642 C.2     1  lig         0.5673
     32 C6         29.9100   15.0625   34.2832 C.3     1  lig        -0.0559
     33 C7         30.0455   18.8872   32.0591 C.3     1  lig        -0.1823
     34 C8         30.0304   13.7295   33.4930 C.3     1  lig        -0.0728
     35 C9         30.3389   17.5485   31.3017 C.3     1  lig        -0.0705
     36 C10        31.3145   11.2490   32.2102 C.3     1  lig        -0.0740
     37 C11        31.6020   15.1561   30.2184 C.3     1  lig        -0.0723
     38 C12        31.8356   10.3133   31.0962 C.3     1  lig        -0.0690
     39 C13        31.6737   13.7947   29.4760 C.3     1  lig        -0.0643
     40 C14        30.6547   16.3472   32.2444 C.3     1  lig        -0.0353
     41 C15        30.9881   13.8519   32.2711 C.3     1  lig        -0.0466
     42 C16        30.8560   15.0843   31.5776 C.3     1  lig        -0.0538
     43 C17        31.2237   12.6237   31.5719 C.3     1  lig        -0.0659
     44 C18        31.9373   11.1671   29.8215 C.3     1  lig         0.2372
     45 C19        32.1098   12.5924   30.3355 C.3     1  lig        -0.0680
     46 C20        33.6065   12.7878   30.7793 C.3     1  lig        -0.0802
     47 O1         28.2650   19.4780   33.5186 O.2     1  lig        -0.5348
     48 O2         32.9495   10.6692   28.9405 O.3     1  lig        -0.5805
@<TRIPOS>BOND
     1    31    47    2
     2    31    33    1
     3    29    31    1
     4    33    35    1
     5     5    33    1
     6     6    33    1
     7    29    30    2
     8     2    29    1
     9    30    32    1
    10    30    40    1
    11    32    34    1
    12     3    32    1
    13     4    32    1
    14    35    40    1
    15    40    42    1
    16    19    40    1
    17     9    35    1
    18    10    35    1
    19    41    42    1
    20    37    42    1
    21    21    42    1
    22    34    41    1
    23    41    43    1
    24    20    41    1
    25     7    34    1
    26     8    34    1
    27    37    39    1
    28    13    37    1
    29    14    37    1
    30    39    45    1
    31    17    39    1
    32    18    39    1
    33    43    45    1
    34    45    46    1
    35    44    45    1
    36    36    43    1
    37    22    43    1
    38    23    46    1
    39    24    46    1
    40    25    46    1
    41    44    48    1
    42    38    44    1
    43    28    44    1
    44    26    48    1
    45    36    38    1
    46    15    38    1
    47    16    38    1
    48    11    36    1
    49    12    36    1
    50    27    28    3
    51     1    27    1
@<TRIPOS>SUBSTRUCTURE
     1 lig         1 TEMP              0 ****  ****    0 ROOT


########## Name:		ligand
########## HA_RMSDs:		16.9777
########## HA_RMSDh:		16.8320
########## HA_RMSDm:		11.1393
########## Cluster Size:	1
##########    Grid Score:          -11.319724
##########      Grid_vdw:          -11.022436
##########       Grid_es:           -0.297288
##########    Int_energy:            3.008126

@<TRIPOS>MOLECULE
ligand
 48 51 1 0 0
SMALL
No Charge or Current Charge


@<TRIPOS>ATOM
      1 H1         15.3929   29.7025   36.0117 H       1  lig         0.1670
      2 H2         17.8304   20.4741   34.9509 H       1  lig         0.1473
      3 H3         16.1414   21.4811   36.2561 H       1  lig         0.0559
      4 H4         14.7208   21.1406   35.2960 H       1  lig         0.0575
      5 H5         17.0219   21.0457   31.0914 H       1  lig         0.0688
      6 H6         18.5068   21.9781   30.9108 H       1  lig         0.0740
      7 H7         15.6600   23.7974   36.3879 H       1  lig         0.0477
      8 H8         14.1060   23.0065   36.6240 H       1  lig         0.0465
      9 H9         16.4133   23.3737   31.0695 H       1  lig         0.0495
     10 H10        17.6309   23.7967   32.2742 H       1  lig         0.0527
     11 H11        13.3598   25.3803   37.2194 H       1  lig         0.0459
     12 H12        12.0414   24.5891   36.3298 H       1  lig         0.0459
     13 H13        14.0993   24.5261   31.7698 H       1  lig         0.0438
     14 H14        15.6754   25.2634   31.8123 H       1  lig         0.0425
     15 H15        10.9807   26.5557   35.9963 H       1  lig         0.0681
     16 H16        12.1254   27.4056   36.9673 H       1  lig         0.0571
     17 H17        13.8295   26.9097   32.1157 H       1  lig         0.0423
     18 H18        15.0287   26.9067   33.3780 H       1  lig         0.0489
     19 H19        15.0920   22.2328   32.6435 H       1  lig         0.0634
     20 H20        13.5185   23.4054   34.3631 H       1  lig         0.0564
     21 H21        16.0439   24.5429   33.9815 H       1  lig         0.0555
     22 H22        14.5278   25.7750   35.4209 H       1  lig         0.0551
     23 H23        10.9940   25.4681   34.0053 H       1  lig         0.0433
     24 H24        11.5321   26.0470   32.4513 H       1  lig         0.0424
     25 H25        12.0455   24.4606   33.0131 H       1  lig         0.0357
     26 H26        11.4518   28.9215   34.8552 H       1  lig         0.4072
     27 C1         14.6627   29.0166   35.6403 C.1     1  lig        -0.1335
     28 C2         13.7648   28.2118   35.2217 C.1     1  lig        -0.1688
     29 C3         17.5157   21.0997   34.1238 C.2     1  lig        -0.2674
     30 C4         16.3431   21.9286   34.1239 C.2     1  lig        -0.0292
     31 C5         18.2626   21.0704   32.8383 C.2     1  lig         0.5673
     32 C6         15.5271   21.8642   35.4376 C.3     1  lig        -0.0559
     33 C7         17.7063   21.7342   31.5870 C.3     1  lig        -0.1823
     34 C8         14.8890   23.2058   35.8946 C.3     1  lig        -0.0728
     35 C9         16.9131   23.0269   31.9762 C.3     1  lig        -0.0705
     36 C10        12.7707   25.3959   36.2995 C.3     1  lig        -0.0740
     37 C11        14.8231   25.0059   32.4329 C.3     1  lig        -0.0723
     38 C12        12.0466   26.7480   36.1117 C.3     1  lig        -0.0690
     39 C13        14.2040   26.3287   32.9587 C.3     1  lig        -0.0643
     40 C14        15.8834   22.8118   33.1274 C.3     1  lig        -0.0353
     41 C15        14.3437   24.0384   34.6969 C.3     1  lig        -0.0466
     42 C16        15.1910   24.0016   33.5576 C.3     1  lig        -0.0538
     43 C17        13.6452   25.2328   35.0690 C.3     1  lig        -0.0659
     44 C18        12.6034   27.3651   34.8181 C.3     1  lig         0.2372
     45 C19        13.0859   26.1675   34.0067 C.3     1  lig        -0.0680
     46 C20        11.8395   25.4826   33.3340 C.3     1  lig        -0.0802
     47 O1         19.2675   20.4460   32.8328 O.2     1  lig        -0.5348
     48 O2         11.6432   28.2248   34.1957 O.3     1  lig        -0.5805
@<TRIPOS>BOND
     1    31    47    2
     2    31    33    1
     3    29    31    1
     4    33    35    1
     5     5    33    1
     6     6    33    1
     7    29    30    2
     8     2    29    1
     9    30    32    1
    10    30    40    1
    11    32    34    1
    12     3    32    1
    13     4    32    1
    14    35    40    1
    15    40    42    1
    16    19    40    1
    17     9    35    1
    18    10    35    1
    19    41    42    1
    20    37    42    1
    21    21    42    1
    22    34    41    1
    23    41    43    1
    24    20    41    1
    25     7    34    1
    26     8    34    1
    27    37    39    1
    28    13    37    1
    29    14    37    1
    30    39    45    1
    31    17    39    1
    32    18    39    1
    33    43    45    1
    34    45    46    1
    35    44    45    1
    36    36    43    1
    37    22    43    1
    38    23    46    1
    39    24    46    1
    40    25    46    1
    41    44    48    1
    42    38    44    1
    43    28    44    1
    44    26    48    1
    45    36    38    1
    46    15    38    1
    47    16    38    1
    48    11    36    1
    49    12    36    1
    50    27    28    3
    51     1    27    1
@<TRIPOS>SUBSTRUCTURE
     1 lig         1 TEMP              0 ****  ****    0 ROOT


########## Name:		ligand
########## HA_RMSDs:		15.9307
########## HA_RMSDh:		15.8822
########## HA_RMSDm:		9.6840
########## Cluster Size:	2
##########    Grid Score:          -11.217293
##########      Grid_vdw:          -10.937130
##########       Grid_es:           -0.280163
##########    Int_energy:            3.197263

@<TRIPOS>MOLECULE
ligand
 48 51 1 0 0
SMALL
No Charge or Current Charge


@<TRIPOS>ATOM
      1 H1         15.2692   25.8522   32.0605 H       1  lig         0.1670
      2 H2         21.0335   18.5538   33.4883 H       1  lig         0.1473
      3 H3         20.5228   20.3199   34.9683 H       1  lig         0.0559
      4 H4         19.3763   19.5468   36.0380 H       1  lig         0.0575
      5 H5         17.7311   16.4408   32.7779 H       1  lig         0.0688
      6 H6         17.8129   16.8729   31.0710 H       1  lig         0.0740
      7 H7         19.0819   22.1491   34.5298 H       1  lig         0.0477
      8 H8         18.9246   21.8642   36.2591 H       1  lig         0.0465
      9 H9         16.1186   18.1860   32.3979 H       1  lig         0.0495
     10 H10        17.2840   19.2022   31.5482 H       1  lig         0.0527
     11 H11        17.6334   24.0714   36.1715 H       1  lig         0.0459
     12 H12        16.8361   23.0065   37.3487 H       1  lig         0.0459
     13 H13        14.8161   19.7053   34.1778 H       1  lig         0.0438
     14 H14        15.2010   20.1369   32.5362 H       1  lig         0.0425
     15 H15        14.9961   24.3161   37.4053 H       1  lig         0.0681
     16 H16        15.7305   25.4941   36.3813 H       1  lig         0.0571
     17 H17        13.5843   21.7098   33.5956 H       1  lig         0.0423
     18 H18        15.0175   22.4541   32.9446 H       1  lig         0.0489
     19 H19        17.1677   18.5264   34.4736 H       1  lig         0.0634
     20 H20        16.8986   20.6833   35.9170 H       1  lig         0.0564
     21 H21        17.2383   21.0393   33.1647 H       1  lig         0.0555
     22 H22        16.7759   23.0458   34.4487 H       1  lig         0.0551
     23 H23        14.2749   22.1748   37.2005 H       1  lig         0.0433
     24 H24        13.1715   21.5042   36.0291 H       1  lig         0.0424
     25 H25        14.6852   20.6751   36.3711 H       1  lig         0.0357
     26 H26        13.1440   25.2368   35.7561 H       1  lig         0.4072
     27 C1         15.1195   25.3640   32.9990 C.1     1  lig        -0.1335
     28 C2         14.9084   24.7648   34.1061 C.1     1  lig        -0.1688
     29 C3         19.9757   18.4822   33.2641 C.2     1  lig        -0.2674
     30 C4         18.9407   19.1925   33.9616 C.2     1  lig        -0.0292
     31 C5         19.4940   17.5286   32.2298 C.2     1  lig         0.5673
     32 C6         19.4600   20.1025   35.1009 C.3     1  lig        -0.0559
     33 C7         18.0124   17.2200   32.0696 C.3     1  lig        -0.1823
     34 C8         18.7056   21.4501   35.2765 C.3     1  lig        -0.0728
     35 C9         17.1643   18.4996   32.3780 C.3     1  lig        -0.0705
     36 C10        16.7204   23.5138   36.3932 C.3     1  lig        -0.0740
     37 C11        15.3455   20.4411   33.5678 C.3     1  lig        -0.0723
     38 C12        15.4857   24.4419   36.4405 C.3     1  lig        -0.0690
     39 C13        14.6571   21.8196   33.7555 C.3     1  lig        -0.0643
     40 C14        17.5546   19.2082   33.7112 C.3     1  lig        -0.0353
     41 C15        17.1711   21.3004   35.0579 C.3     1  lig        -0.0466
     42 C16        16.8407   20.4311   33.9845 C.3     1  lig        -0.0538
     43 C17        16.4126   22.4880   35.3169 C.3     1  lig        -0.0659
     44 C18        14.5446   23.9732   35.3183 C.3     1  lig         0.2372
     45 C19        14.9050   22.5058   35.1128 C.3     1  lig        -0.0680
     46 C20        14.2288   21.6588   36.2532 C.3     1  lig        -0.0802
     47 O1         20.3292   16.9793   31.5970 O.2     1  lig        -0.5348
     48 O2         13.1785   24.2677   35.6273 O.3     1  lig        -0.5805
@<TRIPOS>BOND
     1    31    47    2
     2    31    33    1
     3    29    31    1
     4    33    35    1
     5     5    33    1
     6     6    33    1
     7    29    30    2
     8     2    29    1
     9    30    32    1
    10    30    40    1
    11    32    34    1
    12     3    32    1
    13     4    32    1
    14    35    40    1
    15    40    42    1
    16    19    40    1
    17     9    35    1
    18    10    35    1
    19    41    42    1
    20    37    42    1
    21    21    42    1
    22    34    41    1
    23    41    43    1
    24    20    41    1
    25     7    34    1
    26     8    34    1
    27    37    39    1
    28    13    37    1
    29    14    37    1
    30    39    45    1
    31    17    39    1
    32    18    39    1
    33    43    45    1
    34    45    46    1
    35    44    45    1
    36    36    43    1
    37    22    43    1
    38    23    46    1
    39    24    46    1
    40    25    46    1
    41    44    48    1
    42    38    44    1
    43    28    44    1
    44    26    48    1
    45    36    38    1
    46    15    38    1
    47    16    38    1
    48    11    36    1
    49    12    36    1
    50    27    28    3
    51     1    27    1
@<TRIPOS>SUBSTRUCTURE
     1 lig         1 TEMP              0 ****  ****    0 ROOT


########## Name:		ligand
########## HA_RMSDs:		18.1480
########## HA_RMSDh:		18.1231
########## HA_RMSDm:		14.5575
########## Cluster Size:	1
##########    Grid Score:          -11.200151
##########      Grid_vdw:          -11.454675
##########       Grid_es:            0.254523
##########    Int_energy:            3.010438

@<TRIPOS>MOLECULE
ligand
 48 51 1 0 0
SMALL
No Charge or Current Charge


@<TRIPOS>ATOM
      1 H1          2.1503   21.5646   12.9390 H       1  lig         0.1670
      2 H2          4.7323   28.6894    7.0567 H       1  lig         0.1473
      3 H3          5.6825   27.9418    9.0836 H       1  lig         0.0559
      4 H4          7.0735   27.0572    8.5015 H       1  lig         0.0575
      5 H5          5.1158   25.8400    4.2982 H       1  lig         0.0688
      6 H6          3.3621   25.7072    4.1809 H       1  lig         0.0740
      7 H7          4.9206   26.1323   10.4101 H       1  lig         0.0477
      8 H8          6.6622   26.1632   10.6590 H       1  lig         0.0465
      9 H9          4.4566   23.8842    5.5354 H       1  lig         0.0495
     10 H10         3.1999   24.7543    6.4167 H       1  lig         0.0527
     11 H11         6.1017   24.4492   12.4741 H       1  lig         0.0459
     12 H12         7.6342   23.9725   11.7124 H       1  lig         0.0459
     13 H13         5.8677   22.4353    7.2910 H       1  lig         0.0438
     14 H14         4.1359   22.6034    7.2453 H       1  lig         0.0425
     15 H15         7.5462   21.9147   12.6408 H       1  lig         0.0681
     16 H16         6.1340   22.3184   13.5454 H       1  lig         0.0571
     17 H17         4.8905   20.7841    8.7717 H       1  lig         0.0423
     18 H18         3.8666   21.9852    9.5069 H       1  lig         0.0489
     19 H19         6.1834   24.9921    6.6823 H       1  lig         0.0634
     20 H20         6.9524   24.3987    9.1039 H       1  lig         0.0564
     21 H21         4.1972   24.4564    8.6318 H       1  lig         0.0555
     22 H22         4.8849   23.6930   10.8302 H       1  lig         0.0551
     23 H23         8.0760   21.6288   10.4534 H       1  lig         0.0433
     24 H24         7.3094   20.6010    9.2721 H       1  lig         0.0424
     25 H25         7.6768   22.2722    8.8621 H       1  lig         0.0357
     26 H26         5.5611   19.5262   11.0929 H       1  lig         0.4072
     27 C1          3.1240   21.5360   12.5002 C.1     1  lig        -0.1335
     28 C2          4.3023   21.4962   12.0111 C.1     1  lig        -0.1688
     29 C3          4.6806   27.6545    6.7396 C.2     1  lig        -0.2674
     30 C4          5.2691   26.5512    7.4457 C.2     1  lig        -0.0292
     31 C5          4.0449   27.3012    5.4426 C.2     1  lig         0.5673
     32 C6          6.0121   26.9577    8.7412 C.3     1  lig        -0.0559
     33 C7          4.1794   25.9051    4.8520 C.3     1  lig        -0.1823
     34 C8          5.8824   25.9612    9.9269 C.3     1  lig        -0.0728
     35 C9          4.2077   24.8405    5.9999 C.3     1  lig        -0.0705
     36 C10         6.5959   23.6868   11.8674 C.3     1  lig        -0.0740
     37 C11         5.0043   22.7587    7.8773 C.3     1  lig        -0.0723
     38 C12         6.5311   22.2966   12.5392 C.3     1  lig        -0.0690
     39 C13         4.8681   21.8212    9.1070 C.3     1  lig        -0.0643
     40 C14         5.2103   25.1760    7.1461 C.3     1  lig        -0.0353
     41 C15         5.9219   24.4769    9.4577 C.3     1  lig        -0.0466
     42 C16         5.2043   24.2513    8.2529 C.3     1  lig        -0.0538
     43 C17         5.9186   23.5148   10.5193 C.3     1  lig        -0.0659
     44 C18         5.7305   21.3901   11.5897 C.3     1  lig         0.2372
     45 C19         5.9190   22.0239   10.2156 C.3     1  lig        -0.0680
     46 C20         7.3366   21.6187    9.6666 C.3     1  lig        -0.0802
     47 O1          3.4968   28.1816    4.8731 O.2     1  lig        -0.5348
     48 O2          6.1169   20.0191   11.7292 O.3     1  lig        -0.5805
@<TRIPOS>BOND
     1    31    47    2
     2    31    33    1
     3    29    31    1
     4    33    35    1
     5     5    33    1
     6     6    33    1
     7    29    30    2
     8     2    29    1
     9    30    32    1
    10    30    40    1
    11    32    34    1
    12     3    32    1
    13     4    32    1
    14    35    40    1
    15    40    42    1
    16    19    40    1
    17     9    35    1
    18    10    35    1
    19    41    42    1
    20    37    42    1
    21    21    42    1
    22    34    41    1
    23    41    43    1
    24    20    41    1
    25     7    34    1
    26     8    34    1
    27    37    39    1
    28    13    37    1
    29    14    37    1
    30    39    45    1
    31    17    39    1
    32    18    39    1
    33    43    45    1
    34    45    46    1
    35    44    45    1
    36    36    43    1
    37    22    43    1
    38    23    46    1
    39    24    46    1
    40    25    46    1
    41    44    48    1
    42    38    44    1
    43    28    44    1
    44    26    48    1
    45    36    38    1
    46    15    38    1
    47    16    38    1
    48    11    36    1
    49    12    36    1
    50    27    28    3
    51     1    27    1
@<TRIPOS>SUBSTRUCTURE
     1 lig         1 TEMP              0 ****  ****    0 ROOT


########## Name:		ligand
########## HA_RMSDs:		19.1637
########## HA_RMSDh:		18.8795
########## HA_RMSDm:		15.3610
########## Cluster Size:	2
##########    Grid Score:          -11.153205
##########      Grid_vdw:          -11.120735
##########       Grid_es:           -0.032470
##########    Int_energy:            3.024136

@<TRIPOS>MOLECULE
ligand
 48 51 1 0 0
SMALL
No Charge or Current Charge


@<TRIPOS>ATOM
      1 H1         12.6251   24.4880    5.6619 H       1  lig         0.1670
      2 H2          3.5007   27.2618    5.3026 H       1  lig         0.1473
      3 H3          4.7654   25.9057    3.8426 H       1  lig         0.0559
      4 H4          4.1799   24.3133    4.2644 H       1  lig         0.0575
      5 H5          3.1100   25.4076    8.8075 H       1  lig         0.0688
      6 H6          3.9953   26.7079    9.6026 H       1  lig         0.0740
      7 H7          7.0367   25.2872    4.1123 H       1  lig         0.0477
      8 H8          6.3010   23.9236    3.2783 H       1  lig         0.0465
      9 H9          5.3535   24.6249    9.1877 H       1  lig         0.0495
     10 H10         6.0747   26.0808    8.5000 H       1  lig         0.0527
     11 H11         8.7358   23.1699    3.0547 H       1  lig         0.0459
     12 H12         7.7317   21.7319    3.3366 H       1  lig         0.0459
     13 H13         6.6029   22.4951    8.1508 H       1  lig         0.0438
     14 H14         7.3544   23.9587    8.7187 H       1  lig         0.0425
     15 H15         9.5420   20.4619    3.7991 H       1  lig         0.0681
     16 H16        10.6198   21.7501    3.4061 H       1  lig         0.0571
     17 H17         8.9948   22.1313    8.2951 H       1  lig         0.0423
     18 H18         9.3163   23.6201    7.4515 H       1  lig         0.0489
     19 H19         4.6051   23.8710    7.0910 H       1  lig         0.0634
     20 H20         6.1324   22.7227    5.3144 H       1  lig         0.0564
     21 H21         7.1852   24.9514    6.6341 H       1  lig         0.0555
     22 H22         8.7035   23.7784    5.1484 H       1  lig         0.0551
     23 H23         8.0061   20.0328    5.4128 H       1  lig         0.0433
     24 H24         8.2012   20.0866    7.1445 H       1  lig         0.0424
     25 H25         6.8061   20.8606    6.4028 H       1  lig         0.0357
     26 H26        10.1070   19.7411    5.9215 H       1  lig         0.4072
     27 C1         11.8822   23.7204    5.6839 C.1     1  lig        -0.1335
     28 C2         11.0072   22.7911    5.6756 C.1     1  lig        -0.1688
     29 C3          3.9028   26.6871    6.1287 C.2     1  lig        -0.2674
     30 C4          4.6879   25.4927    5.9899 C.2     1  lig        -0.0292
     31 C5          3.5761   27.0633    7.5297 C.2     1  lig         0.5673
     32 C6          4.9294   25.0655    4.5220 C.3     1  lig        -0.0559
     33 C7          3.9089   26.1401    8.6929 C.3     1  lig        -0.1823
     34 C8          6.3310   24.4640    4.2227 C.3     1  lig        -0.0728
     35 C9          5.2442   25.3756    8.4024 C.3     1  lig        -0.0705
     36 C10         8.5191   22.3573    3.7520 C.3     1  lig        -0.0740
     37 C11         7.2405   23.3274    7.8434 C.3     1  lig        -0.0723
     38 C12         9.7739   21.5002    4.0327 C.3     1  lig        -0.0690
     39 C13         8.6408   22.7641    7.4809 C.3     1  lig        -0.0643
     40 C14         5.2967   24.7123    6.9922 C.3     1  lig        -0.0353
     41 C15         6.8407   23.5518    5.3773 C.3     1  lig        -0.0466
     42 C16         6.5437   24.0641    6.6682 C.3     1  lig        -0.0538
     43 C17         8.0780   22.8818    5.1070 C.3     1  lig        -0.0659
     44 C18        10.0693   21.6383    5.5354 C.3     1  lig         0.2372
     45 C19         8.7192   21.9838    6.1545 C.3     1  lig        -0.0680
     46 C20         7.8718   20.6641    6.2784 C.3     1  lig        -0.0802
     47 O1          2.9854   28.0783    7.6733 O.2     1  lig        -0.5348
     48 O2         10.7374   20.4791    6.0436 O.3     1  lig        -0.5805
@<TRIPOS>BOND
     1    31    47    2
     2    31    33    1
     3    29    31    1
     4    33    35    1
     5     5    33    1
     6     6    33    1
     7    29    30    2
     8     2    29    1
     9    30    32    1
    10    30    40    1
    11    32    34    1
    12     3    32    1
    13     4    32    1
    14    35    40    1
    15    40    42    1
    16    19    40    1
    17     9    35    1
    18    10    35    1
    19    41    42    1
    20    37    42    1
    21    21    42    1
    22    34    41    1
    23    41    43    1
    24    20    41    1
    25     7    34    1
    26     8    34    1
    27    37    39    1
    28    13    37    1
    29    14    37    1
    30    39    45    1
    31    17    39    1
    32    18    39    1
    33    43    45    1
    34    45    46    1
    35    44    45    1
    36    36    43    1
    37    22    43    1
    38    23    46    1
    39    24    46    1
    40    25    46    1
    41    44    48    1
    42    38    44    1
    43    28    44    1
    44    26    48    1
    45    36    38    1
    46    15    38    1
    47    16    38    1
    48    11    36    1
    49    12    36    1
    50    27    28    3
    51     1    27    1
@<TRIPOS>SUBSTRUCTURE
     1 lig         1 TEMP              0 ****  ****    0 ROOT


########## Name:		ligand
########## HA_RMSDs:		18.8492
########## HA_RMSDh:		18.7120
########## HA_RMSDm:		15.4631
########## Cluster Size:	1
##########    Grid Score:          -11.036431
##########      Grid_vdw:          -10.606720
##########       Grid_es:           -0.429711
##########    Int_energy:            3.280444

@<TRIPOS>MOLECULE
ligand
 48 51 1 0 0
SMALL
No Charge or Current Charge


@<TRIPOS>ATOM
      1 H1         10.0649   22.2826    5.8253 H       1  lig         0.1670
      2 H2          2.2891   27.0220    6.0160 H       1  lig         0.1473
      3 H3          2.6330   24.7193    5.6295 H       1  lig         0.0559
      4 H4          2.1353   24.0391    7.1611 H       1  lig         0.0575
      5 H5          3.3008   27.8875    9.7714 H       1  lig         0.0688
      6 H6          4.5736   28.9590    9.1895 H       1  lig         0.0740
      7 H7          4.7136   23.5857    5.6510 H       1  lig         0.0477
      8 H8          3.5504   22.3902    6.2114 H       1  lig         0.0465
      9 H9          5.3887   26.7109    9.9880 H       1  lig         0.0495
     10 H10         5.8758   27.0865    8.3344 H       1  lig         0.0527
     11 H11         5.5449   20.8093    5.9485 H       1  lig         0.0459
     12 H12         4.6281   20.3142    7.3872 H       1  lig         0.0459
     13 H13         5.8270   24.1051   10.4243 H       1  lig         0.0438
     14 H14         6.8968   25.2109    9.6105 H       1  lig         0.0425
     15 H15         6.3165   18.9967    8.1064 H       1  lig         0.0681
     16 H16         7.2347   19.2914    6.6762 H       1  lig         0.0571
     17 H17         7.9856   23.0364   10.1545 H       1  lig         0.0423
     18 H18         8.0510   23.4934    8.4757 H       1  lig         0.0489
     19 H19         3.7183   25.2188    9.2750 H       1  lig         0.0634
     20 H20         4.1775   22.7821    8.4629 H       1  lig         0.0564
     21 H21         5.9260   24.7666    7.5562 H       1  lig         0.0555
     22 H22         6.5033   22.4860    6.9609 H       1  lig         0.0551
     23 H23         5.6170   20.2061    9.8939 H       1  lig         0.0433
     24 H24         6.5616   21.1868   10.9827 H       1  lig         0.0424
     25 H25         5.0692   21.8291   10.3074 H       1  lig         0.0357
     26 H26         7.6821   19.4112    9.8179 H       1  lig         0.4072
     27 C1          9.4505   21.7892    6.5467 C.1     1  lig        -0.1335
     28 C2          8.6889   21.2260    7.4023 C.1     1  lig        -0.1688
     29 C3          2.9540   26.9427    6.8681 C.2     1  lig        -0.2674
     30 C4          3.4708   25.7094    7.3917 C.2     1  lig        -0.0292
     31 C5          3.3202   28.1562    7.6456 C.2     1  lig         0.5673
     32 C6          2.9938   24.4518    6.6258 C.3     1  lig        -0.0559
     33 C7          4.0367   28.0496    8.9840 C.3     1  lig        -0.1823
     34 C8          4.0496   23.3213    6.4738 C.3     1  lig        -0.0728
     35 C9          5.0207   26.8316    8.9671 C.3     1  lig        -0.0705
     36 C10         5.5771   20.7141    7.0364 C.3     1  lig        -0.0740
     37 C11         6.3442   24.2862    9.4790 C.3     1  lig        -0.0723
     38 C12         6.7322   19.7941    7.4918 C.3     1  lig        -0.0690
     39 C13         7.3748   23.1466    9.2582 C.3     1  lig        -0.0643
     40 C14         4.3767   25.5083    8.4514 C.3     1  lig        -0.0353
     41 C15         4.9211   23.1515    7.7531 C.3     1  lig        -0.0466
     42 C16         5.2790   24.3873    8.3547 C.3     1  lig        -0.0538
     43 C17         5.8361   22.0498    7.7102 C.3     1  lig        -0.0659
     44 C18         7.6736   20.6640    8.3413 C.3     1  lig         0.2372
     45 C19         6.7791   21.7786    8.8731 C.3     1  lig        -0.0680
     46 C20         5.9441   21.2176   10.0827 C.3     1  lig        -0.0802
     47 O1          2.9606   29.1908    7.1984 O.2     1  lig        -0.5348
     48 O2          8.3755   19.8787    9.3104 O.3     1  lig        -0.5805
@<TRIPOS>BOND
     1    31    47    2
     2    31    33    1
     3    29    31    1
     4    33    35    1
     5     5    33    1
     6     6    33    1
     7    29    30    2
     8     2    29    1
     9    30    32    1
    10    30    40    1
    11    32    34    1
    12     3    32    1
    13     4    32    1
    14    35    40    1
    15    40    42    1
    16    19    40    1
    17     9    35    1
    18    10    35    1
    19    41    42    1
    20    37    42    1
    21    21    42    1
    22    34    41    1
    23    41    43    1
    24    20    41    1
    25     7    34    1
    26     8    34    1
    27    37    39    1
    28    13    37    1
    29    14    37    1
    30    39    45    1
    31    17    39    1
    32    18    39    1
    33    43    45    1
    34    45    46    1
    35    44    45    1
    36    36    43    1
    37    22    43    1
    38    23    46    1
    39    24    46    1
    40    25    46    1
    41    44    48    1
    42    38    44    1
    43    28    44    1
    44    26    48    1
    45    36    38    1
    46    15    38    1
    47    16    38    1
    48    11    36    1
    49    12    36    1
    50    27    28    3
    51     1    27    1
@<TRIPOS>SUBSTRUCTURE
     1 lig         1 TEMP              0 ****  ****    0 ROOT


########## Name:		ligand
########## HA_RMSDs:		20.9548
########## HA_RMSDh:		20.7742
########## HA_RMSDm:		16.4755
########## Cluster Size:	1
##########    Grid Score:          -10.885558
##########      Grid_vdw:          -10.917758
##########       Grid_es:            0.032200
##########    Int_energy:            3.107324

@<TRIPOS>MOLECULE
ligand
 48 51 1 0 0
SMALL
No Charge or Current Charge


@<TRIPOS>ATOM
      1 H1         34.4817    5.2115   32.5320 H       1  lig         0.1670
      2 H2         30.7337   13.9711   32.0610 H       1  lig         0.1473
      3 H3         30.5983   12.2235   30.4806 H       1  lig         0.0559
      4 H4         28.9903   11.6103   30.7881 H       1  lig         0.0575
      5 H5         28.9065   12.8478   35.4189 H       1  lig         0.0688
      6 H6         30.4300   12.9683   36.2970 H       1  lig         0.0740
      7 H7         31.5943   10.0814   30.6647 H       1  lig         0.0477
      8 H8         30.1220    9.8088   29.7405 H       1  lig         0.0465
      9 H9         29.7547   10.6136   35.7011 H       1  lig         0.0495
     10 H10        31.3602   11.0521   35.1156 H       1  lig         0.0527
     11 H11        31.1454    7.4859   29.4198 H       1  lig         0.0459
     12 H12        29.3888    7.2992   29.6066 H       1  lig         0.0459
     13 H13        29.0027    8.3501   34.4831 H       1  lig         0.0438
     14 H14        30.5737    8.6921   35.1495 H       1  lig         0.0425
     15 H15        29.5817    5.0732   29.9405 H       1  lig         0.0681
     16 H16        31.2781    5.1137   29.6301 H       1  lig         0.0571
     17 H17        30.2761    6.2894   34.5598 H       1  lig         0.0423
     18 H18        31.6541    7.0623   33.8281 H       1  lig         0.0489
     19 H19        28.7966   10.8244   33.5651 H       1  lig         0.0634
     20 H20        29.0047    9.0318   31.6806 H       1  lig         0.0564
     21 H21        31.3158    9.5938   33.1504 H       1  lig         0.0555
     22 H22        31.4855    7.7739   31.5543 H       1  lig         0.0551
     23 H23        28.1802    5.8606   31.5413 H       1  lig         0.0433
     24 H24        28.2651    5.6392   33.2685 H       1  lig         0.0424
     25 H25        27.9796    7.2462   32.6114 H       1  lig         0.0357
     26 H26        29.3154    4.0191   31.9260 H       1  lig         0.4072
     27 C1         33.4505    5.2888   32.2632 C.1     1  lig        -0.1335
     28 C2         32.2107    5.3523   31.9664 C.1     1  lig        -0.1688
     29 C3         30.5201   13.2419   32.8338 C.2     1  lig        -0.2674
     30 C4         30.1323   11.8808   32.5908 C.2     1  lig        -0.0292
     31 C5         30.5258   13.6462   34.2648 C.2     1  lig         0.5673
     32 C6         30.0357   11.5123   31.0905 C.3     1  lig        -0.0559
     33 C7         29.9869   12.7229   35.3479 C.3     1  lig        -0.1823
     34 C8         30.5060   10.0772   30.7231 C.3     1  lig        -0.0728
     35 C9         30.2901   11.2319   34.9777 C.3     1  lig        -0.0705
     36 C10        30.3552    7.0806   30.0560 C.3     1  lig        -0.0740
     37 C11        30.0630    8.4243   34.2302 C.3     1  lig        -0.0723
     38 C12        30.5084    5.5551   30.2494 C.3     1  lig        -0.0690
     39 C13        30.5645    7.0189   33.8027 C.3     1  lig        -0.0643
     40 C14        29.8889   10.8504   33.5199 C.3     1  lig        -0.0353
     41 C15        30.0909    9.0272   31.7956 C.3     1  lig        -0.0466
     42 C16        30.2243    9.5039   33.1268 C.3     1  lig        -0.0538
     43 C17        30.4010    7.6706   31.4543 C.3     1  lig        -0.0659
     44 C18        30.7334    5.3264   31.7532 C.3     1  lig         0.2372
     45 C19        30.0874    6.5366   32.4191 C.3     1  lig        -0.0680
     46 C20        28.5299    6.3175   32.4549 C.3     1  lig        -0.0802
     47 O1         30.9039   14.7432   34.4957 O.2     1  lig        -0.5348
     48 O2         30.2651    4.0365   32.1598 O.3     1  lig        -0.5805
@<TRIPOS>BOND
     1    31    47    2
     2    31    33    1
     3    29    31    1
     4    33    35    1
     5     5    33    1
     6     6    33    1
     7    29    30    2
     8     2    29    1
     9    30    32    1
    10    30    40    1
    11    32    34    1
    12     3    32    1
    13     4    32    1
    14    35    40    1
    15    40    42    1
    16    19    40    1
    17     9    35    1
    18    10    35    1
    19    41    42    1
    20    37    42    1
    21    21    42    1
    22    34    41    1
    23    41    43    1
    24    20    41    1
    25     7    34    1
    26     8    34    1
    27    37    39    1
    28    13    37    1
    29    14    37    1
    30    39    45    1
    31    17    39    1
    32    18    39    1
    33    43    45    1
    34    45    46    1
    35    44    45    1
    36    36    43    1
    37    22    43    1
    38    23    46    1
    39    24    46    1
    40    25    46    1
    41    44    48    1
    42    38    44    1
    43    28    44    1
    44    26    48    1
    45    36    38    1
    46    15    38    1
    47    16    38    1
    48    11    36    1
    49    12    36    1
    50    27    28    3
    51     1    27    1
@<TRIPOS>SUBSTRUCTURE
     1 lig         1 TEMP              0 ****  ****    0 ROOT


########## Name:		ligand
########## HA_RMSDs:		16.2815
########## HA_RMSDh:		16.0046
########## HA_RMSDm:		10.1353
########## Cluster Size:	1
##########    Grid Score:          -10.812304
##########      Grid_vdw:          -11.746082
##########       Grid_es:            0.933778
##########    Int_energy:            3.232438

@<TRIPOS>MOLECULE
ligand
 48 51 1 0 0
SMALL
No Charge or Current Charge


@<TRIPOS>ATOM
      1 H1         23.6572   15.9570   30.0582 H       1  lig         0.1670
      2 H2         16.7201   14.5683   35.8505 H       1  lig         0.1473
      3 H3         19.0465   14.3674   36.1934 H       1  lig         0.0559
      4 H4         19.3818   15.8176   37.1104 H       1  lig         0.0575
      5 H5         15.8137   18.3952   35.2112 H       1  lig         0.0688
      6 H6         15.2423   17.9972   33.5920 H       1  lig         0.0740
      7 H7         20.7457   14.8194   34.6051 H       1  lig         0.0477
      8 H8         21.4700   15.2222   36.1573 H       1  lig         0.0465
      9 H9         17.5355   19.0423   33.6597 H       1  lig         0.0495
     10 H10        17.4985   17.4858   32.8296 H       1  lig         0.0527
     11 H11        23.5968   15.4020   34.7463 H       1  lig         0.0459
     12 H12        23.6400   16.6763   35.9832 H       1  lig         0.0459
     13 H13        20.0920   19.6821   34.1368 H       1  lig         0.0438
     14 H14        19.4511   19.0181   32.6611 H       1  lig         0.0425
     15 H15        25.3227   17.7527   34.9278 H       1  lig         0.0681
     16 H16        25.4689   16.4972   33.7541 H       1  lig         0.0571
     17 H17        21.7835   19.8585   32.4100 H       1  lig         0.0423
     18 H18        21.5449   18.1976   31.9453 H       1  lig         0.0489
     19 H19        18.5207   18.1183   35.5834 H       1  lig         0.0634
     20 H20        21.0531   17.5267   35.7947 H       1  lig         0.0564
     21 H21        19.7935   16.8484   33.3925 H       1  lig         0.0555
     22 H22        22.1909   16.4831   33.4776 H       1  lig         0.0551
     23 H23        23.7795   19.3219   35.4786 H       1  lig         0.0433
     24 H24        23.0213   20.5111   34.4537 H       1  lig         0.0424
     25 H25        22.0330   19.5473   35.5447 H       1  lig         0.0357
     26 H26        25.0978   19.7052   33.7713 H       1  lig         0.4072
     27 C1         23.8233   16.6120   30.8857 C.1     1  lig        -0.1335
     28 C2         23.9980   17.3729   31.8956 C.1     1  lig        -0.1688
     29 C3         16.9069   15.5287   35.3845 C.2     1  lig        -0.2674
     30 C4         18.1771   16.1985   35.3696 C.2     1  lig        -0.0292
     31 C5         15.7862   16.2965   34.7798 C.2     1  lig         0.5673
     32 C6         19.3051   15.4246   36.0937 C.3     1  lig        -0.0559
     33 C7         15.9638   17.7453   34.3493 C.3     1  lig        -0.1823
     34 C8         20.7106   15.5221   35.4373 C.3     1  lig        -0.0728
     35 C9         17.4165   17.9671   33.8085 C.3     1  lig        -0.0705
     36 C10        23.5835   16.4814   34.9143 C.3     1  lig        -0.0740
     37 C11        20.1747   18.8370   33.4493 C.3     1  lig        -0.0723
     38 C12        24.7561   17.1829   34.1926 C.3     1  lig        -0.0690
     39 C13        21.5884   18.8628   32.8087 C.3     1  lig        -0.0643
     40 C14        18.5304   17.4124   34.7484 C.3     1  lig        -0.0353
     41 C15        21.0009   16.9439   34.8724 C.3     1  lig        -0.0466
     42 C16        19.8749   17.5362   34.2412 C.3     1  lig        -0.0538
     43 C17        22.3253   17.1219   34.3555 C.3     1  lig        -0.0659
     44 C18        24.1269   18.1420   33.1685 C.3     1  lig         0.2372
     45 C19        22.7455   18.4473   33.7376 C.3     1  lig        -0.0680
     46 C20        22.8997   19.5146   34.8832 C.3     1  lig        -0.0802
     47 O1         14.7437   15.7400   34.7219 O.2     1  lig        -0.5348
     48 O2         24.9818   19.2599   32.9081 O.3     1  lig        -0.5805
@<TRIPOS>BOND
     1    31    47    2
     2    31    33    1
     3    29    31    1
     4    33    35    1
     5     5    33    1
     6     6    33    1
     7    29    30    2
     8     2    29    1
     9    30    32    1
    10    30    40    1
    11    32    34    1
    12     3    32    1
    13     4    32    1
    14    35    40    1
    15    40    42    1
    16    19    40    1
    17     9    35    1
    18    10    35    1
    19    41    42    1
    20    37    42    1
    21    21    42    1
    22    34    41    1
    23    41    43    1
    24    20    41    1
    25     7    34    1
    26     8    34    1
    27    37    39    1
    28    13    37    1
    29    14    37    1
    30    39    45    1
    31    17    39    1
    32    18    39    1
    33    43    45    1
    34    45    46    1
    35    44    45    1
    36    36    43    1
    37    22    43    1
    38    23    46    1
    39    24    46    1
    40    25    46    1
    41    44    48    1
    42    38    44    1
    43    28    44    1
    44    26    48    1
    45    36    38    1
    46    15    38    1
    47    16    38    1
    48    11    36    1
    49    12    36    1
    50    27    28    3
    51     1    27    1
@<TRIPOS>SUBSTRUCTURE
     1 lig         1 TEMP              0 ****  ****    0 ROOT


########## Name:		ligand
########## HA_RMSDs:		15.2806
########## HA_RMSDh:		15.1898
########## HA_RMSDm:		8.6120
########## Cluster Size:	1
##########    Grid Score:          -10.668414
##########      Grid_vdw:          -10.891884
##########       Grid_es:            0.223470
##########    Int_energy:            3.263917

@<TRIPOS>MOLECULE
ligand
 48 51 1 0 0
SMALL
No Charge or Current Charge


@<TRIPOS>ATOM
      1 H1         16.8440   23.3944   30.6135 H       1  lig         0.1670
      2 H2         23.8694   18.1920   33.2030 H       1  lig         0.1473
      3 H3         23.0453   20.1905   34.1501 H       1  lig         0.0559
      4 H4         22.2097   19.5801   35.5591 H       1  lig         0.0575
      5 H5         21.1544   15.3105   33.6516 H       1  lig         0.0688
      6 H6         21.0000   15.1732   31.9011 H       1  lig         0.0740
      7 H7         21.1659   21.4275   33.4072 H       1  lig         0.0477
      8 H8         21.2124   21.6916   35.1463 H       1  lig         0.0465
      9 H9         19.1345   16.4525   33.0144 H       1  lig         0.0495
     10 H10        19.9441   17.3622   31.7377 H       1  lig         0.0527
     11 H11        19.4093   23.4226   34.5997 H       1  lig         0.0459
     12 H12        18.9914   22.6525   36.1450 H       1  lig         0.0459
     13 H13        17.6294   18.1520   34.4353 H       1  lig         0.0438
     14 H14        17.7726   18.1001   32.7015 H       1  lig         0.0425
     15 H15        16.8925   23.4860   36.0828 H       1  lig         0.0681
     16 H16        17.2328   24.3966   34.6578 H       1  lig         0.0571
     17 H17        15.8977   19.5486   33.4737 H       1  lig         0.0423
     18 H18        17.0482   20.3292   32.4256 H       1  lig         0.0489
     19 H19        20.2158   17.6622   34.7150 H       1  lig         0.0634
     20 H20        19.5250   20.0606   35.4756 H       1  lig         0.0564
     21 H21        19.5615   19.5695   32.7234 H       1  lig         0.0555
     22 H22        18.7098   21.7365   33.4070 H       1  lig         0.0551
     23 H23        16.7145   21.2922   36.6330 H       1  lig         0.0433
     24 H24        15.7296   20.0595   35.8914 H       1  lig         0.0424
     25 H25        17.4231   19.7285   36.2353 H       1  lig         0.0357
     26 H26        15.0177   22.2639   35.6449 H       1  lig         0.4072
     27 C1         16.6499   23.1365   31.6320 C.1     1  lig        -0.1335
     28 C2         16.4529   22.8121   32.8507 C.1     1  lig        -0.1688
     29 C3         22.8492   17.8279   33.1700 C.2     1  lig        -0.2674
     30 C4         21.7242   18.4880   33.7707 C.2     1  lig        -0.0292
     31 C5         22.5454   16.5112   32.5493 C.2     1  lig         0.5673
     32 C6         22.0830   19.8066   34.4977 C.3     1  lig        -0.0559
     33 C7         21.1798   15.8592   32.7102 C.3     1  lig        -0.1823
     34 C8         21.0318   20.9449   34.3751 C.3     1  lig        -0.0728
     35 C9         20.0647   16.9579   32.7470 C.3     1  lig        -0.0705
     36 C10        18.6829   22.7860   35.1103 C.3     1  lig        -0.0740
     37 C11        17.9124   18.7454   33.5627 C.3     1  lig        -0.0723
     38 C12        17.2629   23.3937   35.0627 C.3     1  lig        -0.0690
     39 C13        16.9181   19.9303   33.4324 C.3     1  lig        -0.0643
     40 C14        20.3634   18.1261   33.7358 C.3     1  lig        -0.0353
     41 C15        19.5711   20.4092   34.4415 C.3     1  lig        -0.0466
     42 C16        19.3894   19.1898   33.7364 C.3     1  lig        -0.0538
     43 C17        18.5619   21.4262   34.4456 C.3     1  lig        -0.0659
     44 C18        16.3882   22.3977   34.2834 C.3     1  lig         0.2372
     45 C19        17.0865   21.0553   34.4719 C.3     1  lig        -0.0680
     46 C20        16.7287   20.4999   35.8997 C.3     1  lig        -0.0802
     47 O1         23.4422   15.9778   31.9915 O.2     1  lig        -0.5348
     48 O2         15.0184   22.4781   34.6904 O.3     1  lig        -0.5805
@<TRIPOS>BOND
     1    31    47    2
     2    31    33    1
     3    29    31    1
     4    33    35    1
     5     5    33    1
     6     6    33    1
     7    29    30    2
     8     2    29    1
     9    30    32    1
    10    30    40    1
    11    32    34    1
    12     3    32    1
    13     4    32    1
    14    35    40    1
    15    40    42    1
    16    19    40    1
    17     9    35    1
    18    10    35    1
    19    41    42    1
    20    37    42    1
    21    21    42    1
    22    34    41    1
    23    41    43    1
    24    20    41    1
    25     7    34    1
    26     8    34    1
    27    37    39    1
    28    13    37    1
    29    14    37    1
    30    39    45    1
    31    17    39    1
    32    18    39    1
    33    43    45    1
    34    45    46    1
    35    44    45    1
    36    36    43    1
    37    22    43    1
    38    23    46    1
    39    24    46    1
    40    25    46    1
    41    44    48    1
    42    38    44    1
    43    28    44    1
    44    26    48    1
    45    36    38    1
    46    15    38    1
    47    16    38    1
    48    11    36    1
    49    12    36    1
    50    27    28    3
    51     1    27    1
@<TRIPOS>SUBSTRUCTURE
     1 lig         1 TEMP              0 ****  ****    0 ROOT


########## Name:		ligand
########## HA_RMSDs:		18.1243
########## HA_RMSDh:		17.9838
########## HA_RMSDm:		14.5909
########## Cluster Size:	2
##########    Grid Score:          -10.641820
##########      Grid_vdw:          -10.205378
##########       Grid_es:           -0.436442
##########    Int_energy:            3.267164

@<TRIPOS>MOLECULE
ligand
 48 51 1 0 0
SMALL
No Charge or Current Charge


@<TRIPOS>ATOM
      1 H1         31.7328    6.9400   30.2656 H       1  lig         0.1670
      2 H2         34.4509   13.6849   24.7695 H       1  lig         0.1473
      3 H3         32.2811   12.8413   25.1575 H       1  lig         0.0559
      4 H4         31.6095   14.0881   26.1825 H       1  lig         0.0575
      5 H5         35.8002   15.4147   28.0956 H       1  lig         0.0688
      6 H6         37.1069   14.2354   28.1877 H       1  lig         0.0740
      7 H7         31.6957   11.1052   26.6601 H       1  lig         0.0477
      8 H8         30.2944   12.1693   26.6430 H       1  lig         0.0465
      9 H9         35.1889   13.7900   29.7620 H       1  lig         0.0495
     10 H10        35.5548   12.4294   28.7000 H       1  lig         0.0527
     11 H11        29.2354   10.2534   27.9675 H       1  lig         0.0459
     12 H12        28.6336   11.7877   28.6304 H       1  lig         0.0459
     13 H13        32.8071   13.3500   30.9050 H       1  lig         0.0438
     14 H14        34.0809   12.1837   30.6891 H       1  lig         0.0425
     15 H15        27.8236   10.7640   30.4742 H       1  lig         0.0681
     16 H16        28.2326    9.2046   29.8604 H       1  lig         0.0571
     17 H17        32.2831   11.3801   32.2160 H       1  lig         0.0423
     18 H18        32.6226   10.3364   30.8643 H       1  lig         0.0489
     19 H19        33.2868   14.3920   28.5192 H       1  lig         0.0634
     20 H20        30.9857   13.1721   28.6758 H       1  lig         0.0564
     21 H21        33.2687   11.5594   28.6129 H       1  lig         0.0555
     22 H22        31.1628   10.4096   28.9753 H       1  lig         0.0551
     23 H23        28.9479   12.6031   31.1817 H       1  lig         0.0433
     24 H24        30.2043   12.7160   32.3852 H       1  lig         0.0424
     25 H25        30.4125   13.5193   30.8337 H       1  lig         0.0357
     26 H26        30.0498   10.0563   33.0404 H       1  lig         0.4072
     27 C1         31.1689    7.7969   30.5642 C.1     1  lig        -0.1335
     28 C2         30.5105    8.8403   30.8914 C.1     1  lig        -0.1688
     29 C3         34.5970   13.7056   25.8431 C.2     1  lig        -0.2674
     30 C4         33.5679   13.4623   26.8146 C.2     1  lig        -0.0292
     31 C5         35.9150   14.0961   26.4104 C.2     1  lig         0.5673
     32 C6         32.1810   13.1570   26.1989 C.3     1  lig        -0.0559
     33 C7         36.0816   14.3808   27.8961 C.3     1  lig        -0.1823
     34 C8         31.3355   12.0917   26.9514 C.3     1  lig        -0.0728
     35 C9         35.1435   13.4427   28.7278 C.3     1  lig        -0.0705
     36 C10        29.2279   10.9023   28.8463 C.3     1  lig        -0.0740
     37 C11        33.0422   12.3856   30.4483 C.3     1  lig        -0.0723
     38 C12        28.6532   10.1762   30.0834 C.3     1  lig        -0.0690
     39 C13        32.1769   11.2947   31.1344 C.3     1  lig        -0.0643
     40 C14        33.6699   13.4129   28.2186 C.3     1  lig        -0.0353
     41 C15        31.4749   12.2119   28.4977 C.3     1  lig        -0.0466
     42 C16        32.7999   12.5008   28.9195 C.3     1  lig        -0.0538
     43 C17        30.6305   11.3269   29.2438 C.3     1  lig        -0.0659
     44 C18        29.7847   10.1240   31.1233 C.3     1  lig         0.2372
     45 C19        30.6810   11.3042   30.7643 C.3     1  lig        -0.0680
     46 C20        30.0194   12.6218   31.3133 C.3     1  lig        -0.0802
     47 O1         36.7959   14.2389   25.6337 O.2     1  lig        -0.5348
     48 O2         29.2655   10.0870   32.4566 O.3     1  lig        -0.5805
@<TRIPOS>BOND
     1    31    47    2
     2    31    33    1
     3    29    31    1
     4    33    35    1
     5     5    33    1
     6     6    33    1
     7    29    30    2
     8     2    29    1
     9    30    32    1
    10    30    40    1
    11    32    34    1
    12     3    32    1
    13     4    32    1
    14    35    40    1
    15    40    42    1
    16    19    40    1
    17     9    35    1
    18    10    35    1
    19    41    42    1
    20    37    42    1
    21    21    42    1
    22    34    41    1
    23    41    43    1
    24    20    41    1
    25     7    34    1
    26     8    34    1
    27    37    39    1
    28    13    37    1
    29    14    37    1
    30    39    45    1
    31    17    39    1
    32    18    39    1
    33    43    45    1
    34    45    46    1
    35    44    45    1
    36    36    43    1
    37    22    43    1
    38    23    46    1
    39    24    46    1
    40    25    46    1
    41    44    48    1
    42    38    44    1
    43    28    44    1
    44    26    48    1
    45    36    38    1
    46    15    38    1
    47    16    38    1
    48    11    36    1
    49    12    36    1
    50    27    28    3
    51     1    27    1
@<TRIPOS>SUBSTRUCTURE
     1 lig         1 TEMP              0 ****  ****    0 ROOT


########## Name:		ligand
########## HA_RMSDs:		17.2336
########## HA_RMSDh:		17.2088
########## HA_RMSDm:		11.4347
########## Cluster Size:	1
##########    Grid Score:          -10.592400
##########      Grid_vdw:          -11.151879
##########       Grid_es:            0.559479
##########    Int_energy:            3.283653

@<TRIPOS>MOLECULE
ligand
 48 51 1 0 0
SMALL
No Charge or Current Charge


@<TRIPOS>ATOM
      1 H1         14.4043   30.2166   32.2022 H       1  lig         0.1670
      2 H2         18.0892   21.8897   32.0516 H       1  lig         0.1473
      3 H3         18.6311   23.7439   33.4076 H       1  lig         0.0559
      4 H4         17.8993   23.2804   34.9261 H       1  lig         0.0575
      5 H5         14.4248   20.6210   32.9672 H       1  lig         0.0688
      6 H6         13.8775   21.0010   31.3353 H       1  lig         0.0740
      7 H7         17.5646   25.8597   33.3872 H       1  lig         0.0477
      8 H8         18.0859   25.6410   35.0535 H       1  lig         0.0465
      9 H9         13.2132   22.6971   33.0782 H       1  lig         0.0495
     10 H10        14.1052   23.3946   31.7251 H       1  lig         0.0527
     11 H11        17.3785   28.0920   35.2501 H       1  lig         0.0459
     12 H12        16.9380   27.2629   36.7581 H       1  lig         0.0459
     13 H13        13.1279   24.5048   35.0525 H       1  lig         0.0438
     14 H14        12.8755   24.8125   33.3581 H       1  lig         0.0425
     15 H15        15.6146   28.9756   37.4054 H       1  lig         0.0681
     16 H16        16.0876   29.9314   36.0495 H       1  lig         0.0571
     17 H17        12.2237   26.7390   34.7979 H       1  lig         0.0423
     18 H18        13.3772   27.1108   33.5478 H       1  lig         0.0489
     19 H19        15.0782   22.8005   34.5052 H       1  lig         0.0634
     20 H20        15.9015   24.9757   35.6877 H       1  lig         0.0564
     21 H21        15.1300   25.2079   33.0104 H       1  lig         0.0555
     22 H22        15.6842   27.2816   34.1422 H       1  lig         0.0551
     23 H23        14.4360   27.0672   37.7453 H       1  lig         0.0433
     24 H24        12.8297   26.6668   37.1984 H       1  lig         0.0424
     25 H25        14.1332   25.5033   36.9917 H       1  lig         0.0357
     26 H26        13.4228   29.0370   37.4401 H       1  lig         0.4072
     27 C1         14.3302   29.8569   33.2055 C.1     1  lig        -0.1335
     28 C2         14.2572   29.3937   34.3927 C.1     1  lig        -0.1688
     29 C3         17.0457   22.0709   32.2812 C.2     1  lig        -0.2674
     30 C4         16.5732   23.0165   33.2533 C.2     1  lig        -0.0292
     31 C5         15.9857   21.2484   31.6400 C.2     1  lig         0.5673
     32 C6         17.7009   23.7889   33.9796 C.3     1  lig        -0.0559
     33 C7         14.5440   21.3018   32.1244 C.3     1  lig        -0.1823
     34 C8         17.3946   25.2799   34.2942 C.3     1  lig        -0.0728
     35 C9         14.1957   22.7508   32.6049 C.3     1  lig        -0.0705
     36 C10        16.5455   27.7719   35.8803 C.3     1  lig        -0.0740
     37 C11        13.4982   25.0852   34.2040 C.3     1  lig        -0.0723
     38 C12        15.6719   28.9692   36.3177 C.3     1  lig        -0.0690
     39 C13        13.2617   26.5906   34.4996 C.3     1  lig        -0.0643
     40 C14        15.2474   23.3608   33.5815 C.3     1  lig        -0.0353
     41 C15        15.9156   25.4996   34.7293 C.3     1  lig        -0.0466
     42 C16        14.9909   24.7223   33.9824 C.3     1  lig        -0.0538
     43 C17        15.6063   26.8373   35.1389 C.3     1  lig        -0.0659
     44 C18        14.2726   28.7265   35.7280 C.3     1  lig         0.2372
     45 C19        14.1928   27.2133   35.5579 C.3     1  lig        -0.0680
     46 C20        13.8904   26.5662   36.9597 C.3     1  lig        -0.0802
     47 O1         16.3429   20.5077   30.7894 O.2     1  lig        -0.5348
     48 O2         13.2570   29.3432   36.5260 O.3     1  lig        -0.5805
@<TRIPOS>BOND
     1    31    47    2
     2    31    33    1
     3    29    31    1
     4    33    35    1
     5     5    33    1
     6     6    33    1
     7    29    30    2
     8     2    29    1
     9    30    32    1
    10    30    40    1
    11    32    34    1
    12     3    32    1
    13     4    32    1
    14    35    40    1
    15    40    42    1
    16    19    40    1
    17     9    35    1
    18    10    35    1
    19    41    42    1
    20    37    42    1
    21    21    42    1
    22    34    41    1
    23    41    43    1
    24    20    41    1
    25     7    34    1
    26     8    34    1
    27    37    39    1
    28    13    37    1
    29    14    37    1
    30    39    45    1
    31    17    39    1
    32    18    39    1
    33    43    45    1
    34    45    46    1
    35    44    45    1
    36    36    43    1
    37    22    43    1
    38    23    46    1
    39    24    46    1
    40    25    46    1
    41    44    48    1
    42    38    44    1
    43    28    44    1
    44    26    48    1
    45    36    38    1
    46    15    38    1
    47    16    38    1
    48    11    36    1
    49    12    36    1
    50    27    28    3
    51     1    27    1
@<TRIPOS>SUBSTRUCTURE
     1 lig         1 TEMP              0 ****  ****    0 ROOT


########## Name:		ligand
########## HA_RMSDs:		15.8255
########## HA_RMSDh:		15.6332
########## HA_RMSDm:		10.6421
########## Cluster Size:	1
##########    Grid Score:          -10.573035
##########      Grid_vdw:          -10.302811
##########       Grid_es:           -0.270224
##########    Int_energy:            3.008940

@<TRIPOS>MOLECULE
ligand
 48 51 1 0 0
SMALL
No Charge or Current Charge


@<TRIPOS>ATOM
      1 H1         22.7496   12.9120   33.6358 H       1  lig         0.1670
      2 H2         19.9868   21.6211   36.5814 H       1  lig         0.1473
      3 H3         21.9990   20.4402   36.9374 H       1  lig         0.0559
      4 H4         23.0679   21.2415   35.8097 H       1  lig         0.0575
      5 H5         19.6259   22.4594   32.7030 H       1  lig         0.0688
      6 H6         18.1663   21.4750   32.6184 H       1  lig         0.0740
      7 H7         22.5281   18.2833   36.1113 H       1  lig         0.0477
      8 H8         24.0720   19.1249   36.1772 H       1  lig         0.0465
      9 H9         20.2312   20.3572   31.7005 H       1  lig         0.0495
     10 H10        19.4296   19.4211   32.9630 H       1  lig         0.0527
     11 H11        24.9917   16.7909   35.6742 H       1  lig         0.0459
     12 H12        25.9779   17.9790   34.7958 H       1  lig         0.0459
     13 H13        22.6636   19.3130   31.2932 H       1  lig         0.0438
     14 H14        21.1803   18.4267   31.5018 H       1  lig         0.0425
     15 H15        26.9182   16.3707   33.5178 H       1  lig         0.0681
     16 H16        26.1227   15.1207   34.4013 H       1  lig         0.0571
     17 H17        23.0547   16.9977   30.6930 H       1  lig         0.0423
     18 H18        22.2821   16.4434   32.1516 H       1  lig         0.0489
     19 H19        21.9436   21.0558   33.1511 H       1  lig         0.0634
     20 H20        23.9702   19.5691   33.8516 H       1  lig         0.0564
     21 H21        21.4599   18.3392   33.7983 H       1  lig         0.0555
     22 H22        23.3495   16.8831   34.2425 H       1  lig         0.0551
     23 H23        26.3029   18.0478   32.1195 H       1  lig         0.0433
     24 H24        25.3371   17.9592   30.6707 H       1  lig         0.0424
     25 H25        24.9920   19.1990   31.8706 H       1  lig         0.0357
     26 H26        26.3908   16.0508   31.2622 H       1  lig         0.4072
     27 C1         23.3282   13.7606   33.3415 C.1     1  lig        -0.1335
     28 C2         24.0514   14.7557   33.0010 C.1     1  lig        -0.1688
     29 C3         20.0511   21.3460   35.5352 C.2     1  lig        -0.2674
     30 C4         21.1821   20.7052   34.9249 C.2     1  lig        -0.0292
     31 C5         18.9574   21.7136   34.5973 C.2     1  lig         0.5673
     32 C6         22.3490   20.4239   35.9022 C.3     1  lig        -0.0559
     33 C7         19.1276   21.5714   33.0917 C.3     1  lig        -0.1823
     34 C8         23.1110   19.0898   35.6670 C.3     1  lig        -0.0728
     35 C9         20.0172   20.3235   32.7707 C.3     1  lig        -0.0705
     36 C10        25.2828   17.1495   34.6841 C.3     1  lig        -0.0740
     37 C11        22.1744   18.5603   31.9159 C.3     1  lig        -0.0723
     38 C12        25.9367   16.0293   33.8441 C.3     1  lig        -0.0690
     39 C13        22.9384   17.2188   31.7542 C.3     1  lig        -0.0643
     40 C14        21.3382   20.2618   33.5971 C.3     1  lig        -0.0353
     41 C15        23.2888   18.7705   34.1532 C.3     1  lig        -0.0466
     42 C16        22.1423   19.0850   33.3763 C.3     1  lig        -0.0538
     43 C17        24.0816   17.6094   33.8771 C.3     1  lig        -0.0659
     44 C18        25.0304   15.8164   32.6202 C.3     1  lig         0.2372
     45 C19        24.3142   17.1511   32.4450 C.3     1  lig        -0.0680
     46 C20        25.2970   18.1594   31.7433 C.3     1  lig        -0.0802
     47 O1         17.9876   22.1841   35.0852 O.2     1  lig        -0.5348
     48 O2         25.7750   15.3287   31.4993 O.3     1  lig        -0.5805
@<TRIPOS>BOND
     1    31    47    2
     2    31    33    1
     3    29    31    1
     4    33    35    1
     5     5    33    1
     6     6    33    1
     7    29    30    2
     8     2    29    1
     9    30    32    1
    10    30    40    1
    11    32    34    1
    12     3    32    1
    13     4    32    1
    14    35    40    1
    15    40    42    1
    16    19    40    1
    17     9    35    1
    18    10    35    1
    19    41    42    1
    20    37    42    1
    21    21    42    1
    22    34    41    1
    23    41    43    1
    24    20    41    1
    25     7    34    1
    26     8    34    1
    27    37    39    1
    28    13    37    1
    29    14    37    1
    30    39    45    1
    31    17    39    1
    32    18    39    1
    33    43    45    1
    34    45    46    1
    35    44    45    1
    36    36    43    1
    37    22    43    1
    38    23    46    1
    39    24    46    1
    40    25    46    1
    41    44    48    1
    42    38    44    1
    43    28    44    1
    44    26    48    1
    45    36    38    1
    46    15    38    1
    47    16    38    1
    48    11    36    1
    49    12    36    1
    50    27    28    3
    51     1    27    1
@<TRIPOS>SUBSTRUCTURE
     1 lig         1 TEMP              0 ****  ****    0 ROOT


########## Name:		ligand
########## HA_RMSDs:		19.6298
########## HA_RMSDh:		19.4245
########## HA_RMSDm:		15.5245
########## Cluster Size:	2
##########    Grid Score:          -10.519253
##########      Grid_vdw:          -10.499852
##########       Grid_es:           -0.019401
##########    Int_energy:            3.003534

@<TRIPOS>MOLECULE
ligand
 48 51 1 0 0
SMALL
No Charge or Current Charge


@<TRIPOS>ATOM
      1 H1          3.2963   34.7924   13.1723 H       1  lig         0.1670
      2 H2          8.2392   27.6745   17.3863 H       1  lig         0.1473
      3 H3          8.6432   29.9992   17.3377 H       1  lig         0.0559
      4 H4          8.0974   30.4729   18.9296 H       1  lig         0.0575
      5 H5          4.8498   26.9728   19.3600 H       1  lig         0.0688
      6 H6          4.1329   26.2906   17.9014 H       1  lig         0.0740
      7 H7          7.3165   31.6342   16.2510 H       1  lig         0.0477
      8 H8          7.9896   32.4653   17.6482 H       1  lig         0.0465
      9 H9          3.3949   28.6443   18.4222 H       1  lig         0.0495
     10 H10         4.0821   28.4661   16.8070 H       1  lig         0.0527
     11 H11         6.9919   34.5193   16.4940 H       1  lig         0.0459
     12 H12         6.7799   34.7083   18.2476 H       1  lig         0.0459
     13 H13         3.2330   31.2576   18.9854 H       1  lig         0.0438
     14 H14         2.8121   30.4976   17.4772 H       1  lig         0.0425
     15 H15         5.3027   36.3944   17.9665 H       1  lig         0.0681
     16 H16         5.5424   36.3988   16.2583 H       1  lig         0.0571
     17 H17         2.0332   32.8603   17.6194 H       1  lig         0.0423
     18 H18         3.0287   32.4947   16.2385 H       1  lig         0.0489
     19 H19         5.3367   29.6737   19.2556 H       1  lig         0.0634
     20 H20         5.9645   32.1725   18.8437 H       1  lig         0.0564
     21 H21         4.9634   30.7446   16.6583 H       1  lig         0.0555
     22 H22         5.3341   33.1160   16.3010 H       1  lig         0.0551
     23 H23         4.4081   34.9834   19.5013 H       1  lig         0.0433
     24 H24         2.8286   34.2454   19.5125 H       1  lig         0.0424
     25 H25         4.2502   33.2603   19.8354 H       1  lig         0.0357
     26 H26         2.0117   35.5649   17.2295 H       1  lig         0.4072
     27 C1          3.4674   34.8173   14.2266 C.1     1  lig        -0.1335
     28 C2          3.6724   34.8858   15.4846 C.1     1  lig        -0.1688
     29 C3          7.2022   27.8946   17.6111 C.2     1  lig        -0.2674
     30 C4          6.6897   29.2011   17.9158 C.2     1  lig        -0.0292
     31 C5          6.2095   26.7923   17.7137 C.2     1  lig         0.5673
     32 C6          7.7624   30.3168   17.9013 C.3     1  lig        -0.0559
     33 C7          4.8150   27.0354   18.2725 C.3     1  lig        -0.1823
     34 C8          7.2932   31.6879   17.3393 C.3     1  lig        -0.0728
     35 C9          4.3226   28.4674   17.8741 C.3     1  lig        -0.0705
     36 C10         6.2583   34.5818   17.3012 C.3     1  lig        -0.0740
     37 C11         3.4587   31.2504   17.9163 C.3     1  lig        -0.0723
     38 C12         5.2754   35.7545   17.0855 C.3     1  lig        -0.0690
     39 C13         3.0553   32.6260   17.3210 C.3     1  lig        -0.0643
     40 C14         5.3603   29.5943   18.1653 C.3     1  lig        -0.0353
     41 C15         5.8367   32.0343   17.7677 C.3     1  lig        -0.0466
     42 C16         4.9637   30.9143   17.7404 C.3     1  lig        -0.0538
     43 C17         5.3916   33.3371   17.3709 C.3     1  lig        -0.0659
     44 C18         3.8771   35.1310   16.9428 C.3     1  lig         0.2372
     45 C19         3.9785   33.8041   17.6874 C.3     1  lig        -0.0680
     46 C20         3.8716   34.0860   19.2315 C.3     1  lig        -0.0802
     47 O1          6.5912   25.7158   17.4049 O.2     1  lig        -0.5348
     48 O2          2.8562   36.0379   17.3714 O.3     1  lig        -0.5805
@<TRIPOS>BOND
     1    31    47    2
     2    31    33    1
     3    29    31    1
     4    33    35    1
     5     5    33    1
     6     6    33    1
     7    29    30    2
     8     2    29    1
     9    30    32    1
    10    30    40    1
    11    32    34    1
    12     3    32    1
    13     4    32    1
    14    35    40    1
    15    40    42    1
    16    19    40    1
    17     9    35    1
    18    10    35    1
    19    41    42    1
    20    37    42    1
    21    21    42    1
    22    34    41    1
    23    41    43    1
    24    20    41    1
    25     7    34    1
    26     8    34    1
    27    37    39    1
    28    13    37    1
    29    14    37    1
    30    39    45    1
    31    17    39    1
    32    18    39    1
    33    43    45    1
    34    45    46    1
    35    44    45    1
    36    36    43    1
    37    22    43    1
    38    23    46    1
    39    24    46    1
    40    25    46    1
    41    44    48    1
    42    38    44    1
    43    28    44    1
    44    26    48    1
    45    36    38    1
    46    15    38    1
    47    16    38    1
    48    11    36    1
    49    12    36    1
    50    27    28    3
    51     1    27    1
@<TRIPOS>SUBSTRUCTURE
     1 lig         1 TEMP              0 ****  ****    0 ROOT


########## Name:		ligand
########## HA_RMSDs:		19.6178
########## HA_RMSDh:		19.3262
########## HA_RMSDm:		15.4370
########## Cluster Size:	1
##########    Grid Score:          -10.351849
##########      Grid_vdw:          -10.386570
##########       Grid_es:            0.034722
##########    Int_energy:            3.263582

@<TRIPOS>MOLECULE
ligand
 48 51 1 0 0
SMALL
No Charge or Current Charge


@<TRIPOS>ATOM
      1 H1          5.1354   32.7596   10.4250 H       1  lig         0.1670
      2 H2          8.3317   27.5976   17.2270 H       1  lig         0.1473
      3 H3          8.8724   29.8184   16.6389 H       1  lig         0.0559
      4 H4          8.0084   30.7153   17.8658 H       1  lig         0.0575
      5 H5          4.5476   27.4527   18.4660 H       1  lig         0.0688
      6 H6          4.1415   26.3837   17.1247 H       1  lig         0.0740
      7 H7          7.9255   31.0733   14.8661 H       1  lig         0.0477
      8 H8          8.3118   32.2678   16.0991 H       1  lig         0.0465
      9 H9          3.4445   28.7835   16.7920 H       1  lig         0.0495
     10 H10         4.4686   28.1646   15.4955 H       1  lig         0.0527
     11 H11         7.7247   33.9084   14.2256 H       1  lig         0.0459
     12 H12         7.1318   34.5800   15.7596 H       1  lig         0.0459
     13 H13         3.3131   31.4486   16.5627 H       1  lig         0.0438
     14 H14         3.2015   30.2932   15.2659 H       1  lig         0.0425
     15 H15         5.8589   36.1087   14.6889 H       1  lig         0.0681
     16 H16         6.4798   35.6357   13.1507 H       1  lig         0.0571
     17 H17         2.5512   32.5953   14.5681 H       1  lig         0.0423
     18 H18         3.8108   31.8644   13.6137 H       1  lig         0.0489
     19 H19         5.2036   30.0194   17.7421 H       1  lig         0.0634
     20 H20         6.0546   32.3070   16.8198 H       1  lig         0.0564
     21 H21         5.4933   30.3164   14.9385 H       1  lig         0.0555
     22 H22         6.0743   32.4952   14.0419 H       1  lig         0.0551
     23 H23         4.5578   35.1781   16.2976 H       1  lig         0.0433
     24 H24         2.9763   34.4613   16.1403 H       1  lig         0.0424
     25 H25         4.2271   33.6167   17.0448 H       1  lig         0.0357
     26 H26         3.6296   36.0732   14.5034 H       1  lig         0.4072
     27 C1          4.9500   33.3153   11.3184 C.1     1  lig        -0.1335
     28 C2          4.7485   33.9529   12.4057 C.1     1  lig        -0.1688
     29 C3          7.2856   27.8643   17.1333 C.2     1  lig        -0.2674
     30 C4          6.7952   29.2000   16.9392 C.2     1  lig        -0.0292
     31 C5          6.2323   26.8277   17.2986 C.2     1  lig         0.5673
     32 C6          7.9069   30.2748   16.8710 C.3     1  lig        -0.0559
     33 C7          4.7642   27.2076   17.4263 C.3     1  lig        -0.1823
     34 C8          7.6591   31.4298   15.8609 C.3     1  lig        -0.0728
     35 C9          4.4603   28.4669   16.5468 C.3     1  lig        -0.0705
     36 C10         6.8321   34.1894   14.7894 C.3     1  lig        -0.0740
     37 C11         3.7747   31.1436   15.6205 C.3     1  lig        -0.0723
     38 C12         5.9946   35.2473   14.0362 C.3     1  lig        -0.0690
     39 C13         3.5987   32.2942   14.5936 C.3     1  lig        -0.0643
     40 C14         5.4694   29.6378   16.7525 C.3     1  lig        -0.0353
     41 C15         6.1664   31.8718   15.8242 C.3     1  lig        -0.0466
     42 C16         5.2580   30.7828   15.9013 C.3     1  lig        -0.0538
     43 C17         5.9004   33.0078   14.9926 C.3     1  lig        -0.0659
     44 C18         4.6309   34.5986   13.7465 C.3     1  lig         0.2372
     45 C19         4.4824   33.5345   14.8286 C.3     1  lig        -0.0680
     46 C20         4.0446   34.2372   16.1664 C.3     1  lig        -0.0802
     47 O1          6.6101   25.7107   17.3953 O.2     1  lig        -0.5348
     48 O2          3.5946   35.5818   13.6583 O.3     1  lig        -0.5805
@<TRIPOS>BOND
     1    31    47    2
     2    31    33    1
     3    29    31    1
     4    33    35    1
     5     5    33    1
     6     6    33    1
     7    29    30    2
     8     2    29    1
     9    30    32    1
    10    30    40    1
    11    32    34    1
    12     3    32    1
    13     4    32    1
    14    35    40    1
    15    40    42    1
    16    19    40    1
    17     9    35    1
    18    10    35    1
    19    41    42    1
    20    37    42    1
    21    21    42    1
    22    34    41    1
    23    41    43    1
    24    20    41    1
    25     7    34    1
    26     8    34    1
    27    37    39    1
    28    13    37    1
    29    14    37    1
    30    39    45    1
    31    17    39    1
    32    18    39    1
    33    43    45    1
    34    45    46    1
    35    44    45    1
    36    36    43    1
    37    22    43    1
    38    23    46    1
    39    24    46    1
    40    25    46    1
    41    44    48    1
    42    38    44    1
    43    28    44    1
    44    26    48    1
    45    36    38    1
    46    15    38    1
    47    16    38    1
    48    11    36    1
    49    12    36    1
    50    27    28    3
    51     1    27    1
@<TRIPOS>SUBSTRUCTURE
     1 lig         1 TEMP              0 ****  ****    0 ROOT


########## Name:		ligand
########## HA_RMSDs:		15.3726
########## HA_RMSDh:		15.2347
########## HA_RMSDm:		9.9901
########## Cluster Size:	1
##########    Grid Score:          -10.324927
##########      Grid_vdw:          -10.039577
##########       Grid_es:           -0.285350
##########    Int_energy:            3.235230

@<TRIPOS>MOLECULE
ligand
 48 51 1 0 0
SMALL
No Charge or Current Charge


@<TRIPOS>ATOM
      1 H1         21.5271   23.7668   35.7026 H       1  lig         0.1670
      2 H2         23.6320   14.9609   34.4461 H       1  lig         0.1473
      3 H3         22.0776   15.9533   35.9190 H       1  lig         0.0559
      4 H4         20.5685   15.5976   35.1114 H       1  lig         0.0575
      5 H5         22.4222   15.5193   30.6910 H       1  lig         0.0688
      6 H6         23.8712   16.4658   30.3571 H       1  lig         0.0740
      7 H7         21.5897   18.2650   36.0991 H       1  lig         0.0477
      8 H8         20.0764   17.4593   36.4953 H       1  lig         0.0465
      9 H9         21.7918   17.8412   30.7314 H       1  lig         0.0495
     10 H10        23.1235   18.2776   31.8032 H       1  lig         0.0527
     11 H11        19.3726   19.8266   37.1640 H       1  lig         0.0459
     12 H12        17.9770   19.0213   36.4161 H       1  lig         0.0459
     13 H13        19.5517   18.9719   31.6674 H       1  lig         0.0438
     14 H14        21.1163   19.7246   31.5460 H       1  lig         0.0425
     15 H15        16.8681   20.9770   36.1936 H       1  lig         0.0681
     16 H16        18.0989   21.8394   37.0404 H       1  lig         0.0571
     17 H17        19.2957   21.3533   32.0384 H       1  lig         0.0423
     18 H18        20.6193   21.3637   33.1696 H       1  lig         0.0489
     19 H19        20.6520   16.6897   32.4343 H       1  lig         0.0634
     20 H20        19.2538   17.8493   34.3073 H       1  lig         0.0564
     21 H21        21.7147   19.0108   33.6655 H       1  lig         0.0555
     22 H22        20.3440   20.2301   35.2538 H       1  lig         0.0551
     23 H23        16.6857   19.8869   34.2124 H       1  lig         0.0433
     24 H24        17.0541   20.4687   32.6107 H       1  lig         0.0424
     25 H25        17.6385   18.8882   33.1169 H       1  lig         0.0357
     26 H26        17.6738   22.9936   33.4870 H       1  lig         0.4072
     27 C1         20.6146   23.2775   35.4393 C.1     1  lig        -0.1335
     28 C2         19.5405   22.6591   35.1339 C.1     1  lig        -0.1688
     29 C3         23.2271   15.5823   33.6559 C.2     1  lig        -0.2674
     30 C4         22.0527   16.3998   33.7772 C.2     1  lig        -0.0292
     31 C5         23.8370   15.5584   32.2999 C.2     1  lig         0.5673
     32 C6         21.3780   16.3293   35.1684 C.3     1  lig        -0.0559
     33 C7         23.1475   16.2150   31.1127 C.3     1  lig        -0.1823
     34 C8         20.7776   17.6653   35.6886 C.3     1  lig        -0.0728
     35 C9         22.3862   17.5005   31.5816 C.3     1  lig        -0.0705
     36 C10        18.6912   19.8351   36.3100 C.3     1  lig        -0.0740
     37 C11        20.3355   19.4598   32.2517 C.3     1  lig        -0.0723
     38 C12        17.9383   21.1799   36.1978 C.3     1  lig        -0.0690
     39 C13        19.7613   20.7772   32.8384 C.3     1  lig        -0.0643
     40 C14        21.4836   17.2770   32.8334 C.3     1  lig        -0.0353
     41 C15        20.1029   18.4908   34.5535 C.3     1  lig        -0.0466
     42 C16        20.8279   18.4607   33.3326 C.3     1  lig        -0.0538
     43 C17        19.4350   19.6788   34.9956 C.3     1  lig        -0.0659
     44 C18        18.3520   21.8006   34.8532 C.3     1  lig         0.2372
     45 C19        18.7595   20.6066   33.9966 C.3     1  lig        -0.0680
     46 C20        17.4569   19.9086   33.4570 C.3     1  lig        -0.0802
     47 O1         24.8420   14.9438   32.1904 O.2     1  lig        -0.5348
     48 O2         17.3240   22.6500   34.3334 O.3     1  lig        -0.5805
@<TRIPOS>BOND
     1    31    47    2
     2    31    33    1
     3    29    31    1
     4    33    35    1
     5     5    33    1
     6     6    33    1
     7    29    30    2
     8     2    29    1
     9    30    32    1
    10    30    40    1
    11    32    34    1
    12     3    32    1
    13     4    32    1
    14    35    40    1
    15    40    42    1
    16    19    40    1
    17     9    35    1
    18    10    35    1
    19    41    42    1
    20    37    42    1
    21    21    42    1
    22    34    41    1
    23    41    43    1
    24    20    41    1
    25     7    34    1
    26     8    34    1
    27    37    39    1
    28    13    37    1
    29    14    37    1
    30    39    45    1
    31    17    39    1
    32    18    39    1
    33    43    45    1
    34    45    46    1
    35    44    45    1
    36    36    43    1
    37    22    43    1
    38    23    46    1
    39    24    46    1
    40    25    46    1
    41    44    48    1
    42    38    44    1
    43    28    44    1
    44    26    48    1
    45    36    38    1
    46    15    38    1
    47    16    38    1
    48    11    36    1
    49    12    36    1
    50    27    28    3
    51     1    27    1
@<TRIPOS>SUBSTRUCTURE
     1 lig         1 TEMP              0 ****  ****    0 ROOT


########## Name:		ligand
########## HA_RMSDs:		17.7907
########## HA_RMSDh:		17.7907
########## HA_RMSDm:		14.8784
########## Cluster Size:	1
##########    Grid Score:          -10.285096
##########      Grid_vdw:           -9.818291
##########       Grid_es:           -0.466805
##########    Int_energy:            3.011268

@<TRIPOS>MOLECULE
ligand
 48 51 1 0 0
SMALL
No Charge or Current Charge


@<TRIPOS>ATOM
      1 H1          8.0244   21.8805   12.9316 H       1  lig         0.1670
      2 H2          7.1567   18.6110    3.9582 H       1  lig         0.1473
      3 H3          6.6397   17.5980    6.0262 H       1  lig         0.0559
      4 H4          4.8989   17.7562    6.0569 H       1  lig         0.0575
      5 H5          4.7542   21.7388    3.3923 H       1  lig         0.0688
      6 H6          6.1471   22.8190    3.3969 H       1  lig         0.0740
      7 H7          6.8987   18.5702    8.1714 H       1  lig         0.0477
      8 H8          5.5116   17.4998    8.3333 H       1  lig         0.0465
      9 H9          4.8354   22.8013    5.5498 H       1  lig         0.0495
     10 H10         6.5466   22.4313    5.7683 H       1  lig         0.0527
     11 H11         5.7895   18.0544   10.8156 H       1  lig         0.0459
     12 H12         4.0522   17.9495   10.4598 H       1  lig         0.0459
     13 H13         3.5399   22.1587    7.8040 H       1  lig         0.0438
     14 H14         5.0671   22.9859    7.6898 H       1  lig         0.0425
     15 H15         3.5113   18.9337   12.4200 H       1  lig         0.0681
     16 H16         5.1581   18.9528   12.9330 H       1  lig         0.0571
     17 H17         4.0971   23.0596    9.9840 H       1  lig         0.0423
     18 H18         5.7111   22.4136    9.8870 H       1  lig         0.0489
     19 H19         4.2022   20.5524    5.8069 H       1  lig         0.0634
     20 H20         4.0255   19.3318    8.1062 H       1  lig         0.0564
     21 H21         6.2427   20.9917    7.7242 H       1  lig         0.0555
     22 H22         5.9932   20.0426    9.9435 H       1  lig         0.0551
     23 H23         2.2750   19.9474   10.8104 H       1  lig         0.0433
     24 H24         2.1189   21.6495   10.4666 H       1  lig         0.0424
     25 H25         2.4115   20.5202    9.1494 H       1  lig         0.0357
     26 H26         3.9586   21.2270   13.7040 H       1  lig         0.4072
     27 C1          7.0526   21.6067   12.5822 C.1     1  lig        -0.1335
     28 C2          5.8873   21.2571   12.1959 C.1     1  lig        -0.1688
     29 C3          6.6534   19.5041    4.3094 C.2     1  lig        -0.2674
     30 C4          5.8878   19.5898    5.5213 C.2     1  lig        -0.0292
     31 C5          6.6454   20.7346    3.4746 C.2     1  lig         0.5673
     32 C6          5.8277   18.2668    6.3224 C.3     1  lig        -0.0559
     33 C7          5.7440   21.9129    3.8141 C.3     1  lig        -0.1823
     34 C8          5.8626   18.4196    7.8688 C.3     1  lig        -0.0728
     35 C9          5.6039   22.0473    5.3679 C.3     1  lig        -0.0705
     36 C10         4.8546   18.6175   10.7657 C.3     1  lig        -0.0740
     37 C11         4.5903   22.1014    8.0997 C.3     1  lig        -0.0723
     38 C12         4.5072   19.2628   12.1262 C.3     1  lig        -0.0690
     39 C13         4.6696   22.1952    9.6470 C.3     1  lig        -0.0643
     40 C14         5.2476   20.7100    6.0865 C.3     1  lig        -0.0353
     41 C15         5.0401   19.6474    8.3595 C.3     1  lig        -0.0466
     42 C16         5.1850   20.7878    7.5253 C.3     1  lig        -0.0538
     43 C17         4.9453   19.7720    9.7837 C.3     1  lig        -0.0659
     44 C18         4.5031   20.7836   11.8993 C.3     1  lig         0.2372
     45 C19         4.2031   20.9419   10.4126 C.3     1  lig        -0.0680
     46 C20         2.6588   20.7421   10.1884 C.3     1  lig        -0.0802
     47 O1          7.3210   20.7110    2.5036 O.2     1  lig        -0.5348
     48 O2          3.6204   21.4440   12.8121 O.3     1  lig        -0.5805
@<TRIPOS>BOND
     1    31    47    2
     2    31    33    1
     3    29    31    1
     4    33    35    1
     5     5    33    1
     6     6    33    1
     7    29    30    2
     8     2    29    1
     9    30    32    1
    10    30    40    1
    11    32    34    1
    12     3    32    1
    13     4    32    1
    14    35    40    1
    15    40    42    1
    16    19    40    1
    17     9    35    1
    18    10    35    1
    19    41    42    1
    20    37    42    1
    21    21    42    1
    22    34    41    1
    23    41    43    1
    24    20    41    1
    25     7    34    1
    26     8    34    1
    27    37    39    1
    28    13    37    1
    29    14    37    1
    30    39    45    1
    31    17    39    1
    32    18    39    1
    33    43    45    1
    34    45    46    1
    35    44    45    1
    36    36    43    1
    37    22    43    1
    38    23    46    1
    39    24    46    1
    40    25    46    1
    41    44    48    1
    42    38    44    1
    43    28    44    1
    44    26    48    1
    45    36    38    1
    46    15    38    1
    47    16    38    1
    48    11    36    1
    49    12    36    1
    50    27    28    3
    51     1    27    1
@<TRIPOS>SUBSTRUCTURE
     1 lig         1 TEMP              0 ****  ****    0 ROOT


########## Name:		ligand
########## HA_RMSDs:		16.6959
########## HA_RMSDh:		16.6956
########## HA_RMSDm:		13.9376
########## Cluster Size:	1
##########    Grid Score:          -10.255178
##########      Grid_vdw:          -11.291254
##########       Grid_es:            1.036076
##########    Int_energy:            3.257450

@<TRIPOS>MOLECULE
ligand
 48 51 1 0 0
SMALL
No Charge or Current Charge


@<TRIPOS>ATOM
      1 H1          6.6781   24.0260   16.1447 H       1  lig         0.1670
      2 H2          8.3868   22.3232    7.3476 H       1  lig         0.1473
      3 H3          7.3696   20.9546    8.9794 H       1  lig         0.0559
      4 H4          5.6867   21.0718    8.5209 H       1  lig         0.0575
      5 H5          6.0366   25.4554    6.6120 H       1  lig         0.0688
      6 H6          7.2910   26.5445    7.2012 H       1  lig         0.0740
      7 H7          6.9339   21.5417   11.2332 H       1  lig         0.0477
      8 H8          5.6365   20.4332   10.8041 H       1  lig         0.0465
      9 H9          5.4211   26.1258    8.8396 H       1  lig         0.0495
     10 H10         7.0190   25.7560    9.4898 H       1  lig         0.0527
     11 H11         5.1511   20.5506   13.3135 H       1  lig         0.0459
     12 H12         3.6007   20.4764   12.4496 H       1  lig         0.0459
     13 H13         3.5811   25.0745   10.4772 H       1  lig         0.0438
     14 H14         5.0155   25.9378   10.9532 H       1  lig         0.0425
     15 H15         2.4529   21.0924   14.2954 H       1  lig         0.0681
     16 H16         3.8778   21.0529   15.2668 H       1  lig         0.0571
     17 H17         3.4252   25.5909   12.8400 H       1  lig         0.0423
     18 H18         5.0399   25.0027   13.1199 H       1  lig         0.0489
     19 H19         4.8986   23.8548    8.5318 H       1  lig         0.0634
     20 H20         4.1547   22.2481   10.4482 H       1  lig         0.0564
     21 H21         6.2673   23.9911   11.0099 H       1  lig         0.0555
     22 H22         5.4580   22.6641   12.8733 H       1  lig         0.0551
     23 H23         1.6633   22.3480   12.5788 H       1  lig         0.0433
     24 H24         1.4946   24.0807   12.4839 H       1  lig         0.0424
     25 H25         2.2307   23.2048   11.1472 H       1  lig         0.0357
     26 H26         2.3286   24.4730   15.0698 H       1  lig         0.4072
     27 C1          5.7347   23.7748   15.7106 C.1     1  lig        -0.1335
     28 C2          4.6260   23.4640   15.1598 C.1     1  lig        -0.1688
     29 C3          7.7431   23.1314    7.6744 C.2     1  lig        -0.2674
     30 C4          6.6578   22.9893    8.6040 C.2     1  lig        -0.0292
     31 C5          7.8895   24.4885    7.0845 C.2     1  lig         0.5673
     32 C6          6.4624   21.5457    9.1272 C.3     1  lig        -0.0559
     33 C7          6.8491   25.5719    7.3290 C.3     1  lig        -0.1823
     34 C8          6.0413   21.4265   10.6186 C.3     1  lig        -0.0728
     35 C9          6.2599   25.4299    8.7728 C.3     1  lig        -0.0705
     36 C10         4.2331   21.0958   13.0820 C.3     1  lig        -0.0740
     37 C11         4.5037   24.9864   11.0558 C.3     1  lig        -0.0723
     38 C12         3.4659   21.4866   14.3653 C.3     1  lig        -0.0690
     39 C13         4.1290   24.8098   12.5518 C.3     1  lig        -0.0643
     40 C14         5.8061   23.9811    9.1287 C.3     1  lig        -0.0353
     41 C15         5.0294   22.5338   11.0367 C.3     1  lig        -0.0466
     42 C16         5.3280   23.8050   10.4779 C.3     1  lig        -0.0538
     43 C17         4.5214   22.4057   12.3703 C.3     1  lig        -0.0659
     44 C18         3.4215   23.0233   14.3960 C.3     1  lig         0.2372
     45 C19         3.5506   23.4333   12.9329 C.3     1  lig        -0.0680
     46 C20         2.1534   23.2464   12.2345 C.3     1  lig        -0.0802
     47 O1          8.8154   24.6478    6.3653 O.2     1  lig        -0.5348
     48 O2          2.2703   23.4971   15.1023 O.3     1  lig        -0.5805
@<TRIPOS>BOND
     1    31    47    2
     2    31    33    1
     3    29    31    1
     4    33    35    1
     5     5    33    1
     6     6    33    1
     7    29    30    2
     8     2    29    1
     9    30    32    1
    10    30    40    1
    11    32    34    1
    12     3    32    1
    13     4    32    1
    14    35    40    1
    15    40    42    1
    16    19    40    1
    17     9    35    1
    18    10    35    1
    19    41    42    1
    20    37    42    1
    21    21    42    1
    22    34    41    1
    23    41    43    1
    24    20    41    1
    25     7    34    1
    26     8    34    1
    27    37    39    1
    28    13    37    1
    29    14    37    1
    30    39    45    1
    31    17    39    1
    32    18    39    1
    33    43    45    1
    34    45    46    1
    35    44    45    1
    36    36    43    1
    37    22    43    1
    38    23    46    1
    39    24    46    1
    40    25    46    1
    41    44    48    1
    42    38    44    1
    43    28    44    1
    44    26    48    1
    45    36    38    1
    46    15    38    1
    47    16    38    1
    48    11    36    1
    49    12    36    1
    50    27    28    3
    51     1    27    1
@<TRIPOS>SUBSTRUCTURE
     1 lig         1 TEMP              0 ****  ****    0 ROOT


########## Name:		ligand
########## HA_RMSDs:		16.5051
########## HA_RMSDh:		16.2268
########## HA_RMSDm:		9.0543
########## Cluster Size:	2
##########    Grid Score:          -10.101562
##########      Grid_vdw:           -9.721482
##########       Grid_es:           -0.380080
##########    Int_energy:            3.010426

@<TRIPOS>MOLECULE
ligand
 48 51 1 0 0
SMALL
No Charge or Current Charge


@<TRIPOS>ATOM
      1 H1         13.8266   23.2796   29.8811 H       1  lig         0.1670
      2 H2         21.5968   20.1698   34.5700 H       1  lig         0.1473
      3 H3         20.7894   22.3569   34.2030 H       1  lig         0.0559
      4 H4         20.0888   22.7271   35.7613 H       1  lig         0.0575
      5 H5         19.0177   18.1881   36.8715 H       1  lig         0.0688
      6 H6         18.7277   17.0372   35.5684 H       1  lig         0.0740
      7 H7         18.8187   22.9491   33.0281 H       1  lig         0.0477
      8 H8         18.9963   24.1974   34.2554 H       1  lig         0.0465
      9 H9         16.9186   18.7703   35.8493 H       1  lig         0.0495
     10 H10        17.5944   18.7198   34.2203 H       1  lig         0.0527
     11 H11        17.1020   25.3013   32.9364 H       1  lig         0.0459
     12 H12        16.8337   25.6150   34.6642 H       1  lig         0.0459
     13 H13        15.4800   21.0159   36.0955 H       1  lig         0.0438
     14 H14        15.4852   19.9365   34.7301 H       1  lig         0.0425
     15 H15        14.7116   26.2946   34.2917 H       1  lig         0.0681
     16 H16        14.9079   26.1671   32.5827 H       1  lig         0.0571
     17 H17        13.6340   21.6022   34.6385 H       1  lig         0.0423
     18 H18        14.6719   21.5766   33.2407 H       1  lig         0.0489
     19 H19        18.0945   20.7306   36.3963 H       1  lig         0.0634
     20 H20        17.3925   23.1242   35.6309 H       1  lig         0.0564
     21 H21        17.2233   21.0874   33.7230 H       1  lig         0.0555
     22 H22        16.3620   23.2531   33.0474 H       1  lig         0.0551
     23 H23        14.6467   24.8672   36.0538 H       1  lig         0.0433
     24 H24        13.6445   23.4584   36.2784 H       1  lig         0.0424
     25 H25        15.3696   23.3593   36.6099 H       1  lig         0.0357
     26 H26        12.8467   25.0959   34.8262 H       1  lig         0.4072
     27 C1         13.9248   23.5161   30.9183 C.1     1  lig        -0.1335
     28 C2         14.0354   23.8357   32.1491 C.1     1  lig        -0.1688
     29 C3         20.5891   19.8814   34.8453 C.2     1  lig        -0.2674
     30 C4         19.4958   20.7951   35.0247 C.2     1  lig        -0.0292
     31 C5         20.2777   18.4618   35.1601 C.2     1  lig         0.5673
     32 C6         19.8705   22.2784   34.7893 C.3     1  lig        -0.0559
     33 C7         18.9504   18.0660   35.7906 C.3     1  lig        -0.1823
     34 C8         18.7778   23.1424   34.0999 C.3     1  lig        -0.0728
     35 C9         17.8081   18.9949   35.2573 C.3     1  lig        -0.0705
     36 C10        16.4392   25.1118   33.7840 C.3     1  lig        -0.0740
     37 C11        15.6735   20.9648   35.0214 C.3     1  lig        -0.0723
     38 C12        15.0016   25.6034   33.5014 C.3     1  lig        -0.0690
     39 C13        14.6354   21.8603   34.2933 C.3     1  lig        -0.0643
     40 C14        18.1485   20.5151   35.3256 C.3     1  lig        -0.0353
     41 C15        17.3445   22.7858   34.5934 C.3     1  lig        -0.0466
     42 C16        17.1450   21.3911   34.7726 C.3     1  lig        -0.0538
     43 C17        16.3077   23.6272   34.0741 C.3     1  lig        -0.0659
     44 C18        14.0987   24.3595   33.5456 C.3     1  lig         0.2372
     45 C19        14.8515   23.3791   34.4386 C.3     1  lig        -0.0680
     46 C20        14.6268   23.7937   35.9395 C.3     1  lig        -0.0802
     47 O1         21.1430   17.6806   34.9583 O.2     1  lig        -0.5348
     48 O2         12.7642   24.6983   33.9362 O.3     1  lig        -0.5805
@<TRIPOS>BOND
     1    31    47    2
     2    31    33    1
     3    29    31    1
     4    33    35    1
     5     5    33    1
     6     6    33    1
     7    29    30    2
     8     2    29    1
     9    30    32    1
    10    30    40    1
    11    32    34    1
    12     3    32    1
    13     4    32    1
    14    35    40    1
    15    40    42    1
    16    19    40    1
    17     9    35    1
    18    10    35    1
    19    41    42    1
    20    37    42    1
    21    21    42    1
    22    34    41    1
    23    41    43    1
    24    20    41    1
    25     7    34    1
    26     8    34    1
    27    37    39    1
    28    13    37    1
    29    14    37    1
    30    39    45    1
    31    17    39    1
    32    18    39    1
    33    43    45    1
    34    45    46    1
    35    44    45    1
    36    36    43    1
    37    22    43    1
    38    23    46    1
    39    24    46    1
    40    25    46    1
    41    44    48    1
    42    38    44    1
    43    28    44    1
    44    26    48    1
    45    36    38    1
    46    15    38    1
    47    16    38    1
    48    11    36    1
    49    12    36    1
    50    27    28    3
    51     1    27    1
@<TRIPOS>SUBSTRUCTURE
     1 lig         1 TEMP              0 ****  ****    0 ROOT


########## Name:		ligand
########## HA_RMSDs:		16.0109
########## HA_RMSDh:		15.8092
########## HA_RMSDm:		10.3817
########## Cluster Size:	2
##########    Grid Score:           -9.813305
##########      Grid_vdw:           -9.809874
##########       Grid_es:           -0.003431
##########    Int_energy:            3.200181

@<TRIPOS>MOLECULE
ligand
 48 51 1 0 0
SMALL
No Charge or Current Charge


@<TRIPOS>ATOM
      1 H1         19.5646   15.3366   33.2441 H       1  lig         0.1670
      2 H2         15.9425   23.3078   36.6777 H       1  lig         0.1473
      3 H3         17.8495   22.1335   37.4223 H       1  lig         0.0559
      4 H4         19.1337   23.0900   36.7206 H       1  lig         0.0575
      5 H5         16.5712   24.6121   32.9658 H       1  lig         0.0688
      6 H6         15.2393   23.6160   32.3822 H       1  lig         0.0740
      7 H7         18.6903   20.1068   36.5280 H       1  lig         0.0477
      8 H8         20.1159   20.9652   37.1000 H       1  lig         0.0465
      9 H9         17.5290   22.6631   31.9293 H       1  lig         0.0495
     10 H10        16.4740   21.5616   32.8161 H       1  lig         0.0527
     11 H11        21.2574   18.7308   36.5991 H       1  lig         0.0459
     12 H12        22.3759   20.0385   36.1578 H       1  lig         0.0459
     13 H13        20.0344   21.7275   32.0716 H       1  lig         0.0438
     14 H14        18.5974   20.7919   31.7733 H       1  lig         0.0425
     15 H15        23.7028   18.6204   35.0037 H       1  lig         0.0681
     16 H16        22.7701   17.2547   35.4937 H       1  lig         0.0571
     17 H17        20.6913   19.5128   31.3384 H       1  lig         0.0423
     18 H18        19.5925   18.7665   32.4641 H       1  lig         0.0489
     19 H19        18.7600   23.2118   33.8550 H       1  lig         0.0634
     20 H20        20.6064   21.6917   34.8982 H       1  lig         0.0564
     21 H21        18.2671   20.4266   34.0355 H       1  lig         0.0555
     22 H22        20.0474   18.9658   34.8004 H       1  lig         0.0551
     23 H23        23.3896   20.4448   33.6920 H       1  lig         0.0433
     24 H24        22.8451   20.5164   32.0373 H       1  lig         0.0424
     25 H25        22.1315   21.5907   33.2341 H       1  lig         0.0357
     26 H26        23.5277   16.9423   32.9362 H       1  lig         0.4072
     27 C1         20.2921   16.1023   33.4045 C.1     1  lig        -0.1335
     28 C2         21.1624   17.0233   33.5581 C.1     1  lig        -0.1688
     29 C3         16.2943   23.1657   35.6626 C.2     1  lig        -0.2674
     30 C4         17.5782   22.6287   35.3084 C.2     1  lig        -0.0292
     31 C5         15.4680   23.6241   34.5144 C.2     1  lig         0.5673
     32 C6         18.4599   22.2526   36.5237 C.3     1  lig        -0.0559
     33 C7         16.0357   23.6728   33.1033 C.3     1  lig        -0.1823
     34 C8         19.3263   20.9738   36.3507 C.3     1  lig        -0.0728
     35 C9         17.0431   22.4928   32.8921 C.3     1  lig        -0.0705
     36 C10        21.7794   19.2151   35.7705 C.3     1  lig        -0.0740
     37 C11        19.4391   20.8936   32.4508 C.3     1  lig        -0.0723
     38 C12        22.6895   18.2212   35.0143 C.3     1  lig        -0.0690
     39 C13        20.2884   19.5984   32.3478 C.3     1  lig        -0.0643
     40 C14        18.1014   22.3564   34.0292 C.3     1  lig        -0.0353
     41 C15        19.9128   20.8481   34.9136 C.3     1  lig        -0.0466
     42 C16        18.9961   21.2328   33.8992 C.3     1  lig        -0.0538
     43 C17        20.8104   19.7466   34.7294 C.3     1  lig        -0.0659
     44 C18        22.1498   18.1428   33.5766 C.3     1  lig         0.2372
     45 C19        21.4355   19.4740   33.3692 C.3     1  lig        -0.0680
     46 C20        22.5137   20.5814   33.0756 C.3     1  lig        -0.0802
     47 O1         14.3807   24.0105   34.7753 O.2     1  lig        -0.5348
     48 O2         23.1877   17.8131   32.6479 O.3     1  lig        -0.5805
@<TRIPOS>BOND
     1    31    47    2
     2    31    33    1
     3    29    31    1
     4    33    35    1
     5     5    33    1
     6     6    33    1
     7    29    30    2
     8     2    29    1
     9    30    32    1
    10    30    40    1
    11    32    34    1
    12     3    32    1
    13     4    32    1
    14    35    40    1
    15    40    42    1
    16    19    40    1
    17     9    35    1
    18    10    35    1
    19    41    42    1
    20    37    42    1
    21    21    42    1
    22    34    41    1
    23    41    43    1
    24    20    41    1
    25     7    34    1
    26     8    34    1
    27    37    39    1
    28    13    37    1
    29    14    37    1
    30    39    45    1
    31    17    39    1
    32    18    39    1
    33    43    45    1
    34    45    46    1
    35    44    45    1
    36    36    43    1
    37    22    43    1
    38    23    46    1
    39    24    46    1
    40    25    46    1
    41    44    48    1
    42    38    44    1
    43    28    44    1
    44    26    48    1
    45    36    38    1
    46    15    38    1
    47    16    38    1
    48    11    36    1
    49    12    36    1
    50    27    28    3
    51     1    27    1
@<TRIPOS>SUBSTRUCTURE
     1 lig         1 TEMP              0 ****  ****    0 ROOT


########## Name:		ligand
########## HA_RMSDs:		19.1489
########## HA_RMSDh:		18.8356
########## HA_RMSDm:		14.2199
########## Cluster Size:	3
##########    Grid Score:           -9.728306
##########      Grid_vdw:           -8.420005
##########       Grid_es:           -1.308301
##########    Int_energy:            3.008643

@<TRIPOS>MOLECULE
ligand
 48 51 1 0 0
SMALL
No Charge or Current Charge


@<TRIPOS>ATOM
      1 H1         37.0941   19.2630   33.1373 H       1  lig         0.1670
      2 H2         27.9851   18.3300   30.2499 H       1  lig         0.1473
      3 H3         30.0016   18.2938   29.0241 H       1  lig         0.0559
      4 H4         30.1922   16.5805   28.7331 H       1  lig         0.0575
      5 H5         27.8774   15.1835   32.6919 H       1  lig         0.0688
      6 H6         27.8506   16.2587   34.0883 H       1  lig         0.0740
      7 H7         32.1881   18.5220   29.9079 H       1  lig         0.0477
      8 H8         32.3807   17.4669   28.5130 H       1  lig         0.0465
      9 H9         30.0985   15.2193   33.6170 H       1  lig         0.0495
     10 H10        30.1408   16.9819   33.6820 H       1  lig         0.0527
     11 H11        34.8669   17.8510   28.9794 H       1  lig         0.0459
     12 H12        34.6523   16.1668   28.4569 H       1  lig         0.0459
     13 H13        32.3956   14.3604   32.5407 H       1  lig         0.0438
     14 H14        32.2190   15.6154   33.7336 H       1  lig         0.0425
     15 H15        36.7239   15.6023   29.1596 H       1  lig         0.0681
     16 H16        37.0953   17.2368   29.5674 H       1  lig         0.0571
     17 H17        34.5856   14.8970   33.4293 H       1  lig         0.0423
     18 H18        34.3008   16.6020   33.2209 H       1  lig         0.0489
     19 H19        30.2271   15.1919   31.2702 H       1  lig         0.0634
     20 H20        32.4279   15.5586   29.9174 H       1  lig         0.0564
     21 H21        31.9937   17.2451   32.1047 H       1  lig         0.0555
     22 H22        34.1429   17.4663   30.9999 H       1  lig         0.0551
     23 H23        35.3113   13.9959   29.9150 H       1  lig         0.0433
     24 H24        35.1195   13.3892   31.5383 H       1  lig         0.0424
     25 H25        33.6960   13.8160   30.5963 H       1  lig         0.0357
     26 H26        37.1826   14.9603   32.5453 H       1  lig         0.4072
     27 C1         36.8030   18.3643   32.6381 C.1     1  lig        -0.1335
     28 C2         36.4863   17.2939   32.0190 C.1     1  lig        -0.1688
     29 C3         28.4482   17.6600   30.9648 C.2     1  lig        -0.2674
     30 C4         29.7235   17.0249   30.7848 C.2     1  lig        -0.0292
     31 C5         27.7183   17.2625   32.1978 C.2     1  lig         0.5673
     32 C6         30.4182   17.3763   29.4470 C.3     1  lig        -0.0559
     33 C7         28.2264   16.1372   33.0876 C.3     1  lig        -0.1823
     34 C8         31.9633   17.5301   29.5164 C.3     1  lig        -0.0728
     35 C9         29.7922   16.1277   33.0943 C.3     1  lig        -0.0705
     36 C10        34.9417   16.8059   29.2885 C.3     1  lig        -0.0740
     37 C11        32.5956   15.4168   32.7354 C.3     1  lig        -0.0723
     38 C12        36.3741   16.4505   29.7467 C.3     1  lig        -0.0690
     39 C13        34.1332   15.6281   32.7590 C.3     1  lig        -0.0643
     40 C14        30.4289   16.1887   31.6721 C.3     1  lig        -0.0353
     41 C15        32.6187   16.4839   30.4655 C.3     1  lig        -0.0466
     42 C16        31.8694   16.2561   31.6503 C.3     1  lig        -0.0538
     43 C17        34.0512   16.5073   30.4816 C.3     1  lig        -0.0659
     44 C18        36.2710   16.0470   31.2270 C.3     1  lig         0.2372
     45 C19        34.8326   15.5670   31.3873 C.3     1  lig        -0.0680
     46 C20        34.7248   14.1056   30.8149 C.3     1  lig        -0.0802
     47 O1         26.6949   17.8202   32.4012 O.2     1  lig        -0.5348
     48 O2         37.3053   15.1264   31.5891 O.3     1  lig        -0.5805
@<TRIPOS>BOND
     1    31    47    2
     2    31    33    1
     3    29    31    1
     4    33    35    1
     5     5    33    1
     6     6    33    1
     7    29    30    2
     8     2    29    1
     9    30    32    1
    10    30    40    1
    11    32    34    1
    12     3    32    1
    13     4    32    1
    14    35    40    1
    15    40    42    1
    16    19    40    1
    17     9    35    1
    18    10    35    1
    19    41    42    1
    20    37    42    1
    21    21    42    1
    22    34    41    1
    23    41    43    1
    24    20    41    1
    25     7    34    1
    26     8    34    1
    27    37    39    1
    28    13    37    1
    29    14    37    1
    30    39    45    1
    31    17    39    1
    32    18    39    1
    33    43    45    1
    34    45    46    1
    35    44    45    1
    36    36    43    1
    37    22    43    1
    38    23    46    1
    39    24    46    1
    40    25    46    1
    41    44    48    1
    42    38    44    1
    43    28    44    1
    44    26    48    1
    45    36    38    1
    46    15    38    1
    47    16    38    1
    48    11    36    1
    49    12    36    1
    50    27    28    3
    51     1    27    1
@<TRIPOS>SUBSTRUCTURE
     1 lig         1 TEMP              0 ****  ****    0 ROOT


########## Name:		ligand
########## HA_RMSDs:		19.2589
########## HA_RMSDh:		19.2589
########## HA_RMSDm:		15.0696
########## Cluster Size:	1
##########    Grid Score:           -9.694155
##########      Grid_vdw:          -10.450381
##########       Grid_es:            0.756226
##########    Int_energy:            3.010437

@<TRIPOS>MOLECULE
ligand
 48 51 1 0 0
SMALL
No Charge or Current Charge


@<TRIPOS>ATOM
      1 H1          4.0610   15.9538   31.2347 H       1  lig         0.1670
      2 H2          5.1931   12.1727   22.4909 H       1  lig         0.1473
      3 H3          5.8631   11.3826   24.6115 H       1  lig         0.0559
      4 H4          4.6629   10.1467   24.9090 H       1  lig         0.0575
      5 H5          1.2133   12.2229   22.3067 H       1  lig         0.0688
      6 H6          1.2375   13.9732   22.1002 H       1  lig         0.0740
      7 H7          5.4774   12.4455   26.6938 H       1  lig         0.0477
      8 H8          5.4655   10.7253   27.0641 H       1  lig         0.0465
      9 H9          0.6483   13.2071   24.4286 H       1  lig         0.0495
     10 H10         2.0193   14.3166   24.3814 H       1  lig         0.0527
     11 H11         5.4496   11.5801   29.4756 H       1  lig         0.0459
     12 H12         4.4184   10.1361   29.3901 H       1  lig         0.0459
     13 H13         0.5653   12.0729   26.8534 H       1  lig         0.0438
     14 H14         0.8580   13.7536   26.5082 H       1  lig         0.0425
     15 H15         3.5090   10.5695   31.4122 H       1  lig         0.0681
     16 H16         4.5662   11.9086   31.6667 H       1  lig         0.0571
     17 H17         0.4235   13.3243   28.9241 H       1  lig         0.0423
     18 H18         1.9180   14.1485   28.5794 H       1  lig         0.0489
     19 H19         2.0305   11.3378   24.7748 H       1  lig         0.0634
     20 H20         3.0958   10.7063   27.0714 H       1  lig         0.0564
     21 H21         3.1424   13.4092   26.3576 H       1  lig         0.0555
     22 H22         3.9435   12.8829   28.5869 H       1  lig         0.0551
     23 H23         1.7955   10.0655   30.0133 H       1  lig         0.0433
     24 H24         0.3406   10.9740   29.7012 H       1  lig         0.0424
     25 H25         1.2719   10.3345   28.3523 H       1  lig         0.0357
     26 H26         2.1270   12.5085   32.6170 H       1  lig         0.4072
     27 C1          3.6396   14.9922   31.0365 C.1     1  lig        -0.1335
     28 C2          3.1535   13.8299   30.8316 C.1     1  lig        -0.1688
     29 C3          4.2203   12.3880   22.9171 C.2     1  lig        -0.2674
     30 C4          3.7973   11.9958   24.2322 C.2     1  lig        -0.0292
     31 C5          3.1761   13.0563   22.0960 C.2     1  lig         0.5673
     32 C6          4.8680   11.2131   25.0302 C.3     1  lig        -0.0559
     33 C7          1.7333   13.1432   22.5722 C.3     1  lig        -0.1823
     34 C8          4.9222   11.5183   26.5533 C.3     1  lig        -0.0728
     35 C9          1.6940   13.3030   24.1294 C.3     1  lig        -0.0705
     36 C10         4.4265   11.2090   29.5708 C.3     1  lig        -0.0740
     37 C11         1.2905   12.8796   26.9844 C.3     1  lig        -0.0723
     38 C12         3.8421   11.5075   30.9699 C.3     1  lig        -0.0690
     39 C13         1.4184   13.1820   28.5015 C.3     1  lig        -0.0643
     40 C14         2.5838   12.2737   24.8912 C.3     1  lig        -0.0353
     41 C15         3.5045   11.7148   27.1668 C.3     1  lig        -0.0466
     42 C16         2.6254   12.4441   26.3228 C.3     1  lig        -0.0538
     43 C17         3.4883   11.8881   28.5890 C.3     1  lig        -0.0659
     44 C18         2.6340   12.4328   30.7496 C.3     1  lig         0.2372
     45 C19         2.1791   12.1263   29.3268 C.3     1  lig        -0.0680
     46 C20         1.3544   10.7866   29.3416 C.3     1  lig        -0.0802
     47 O1          3.5186   13.4466   21.0329 O.2     1  lig        -0.5348
     48 O2          1.6618   12.2764   31.7884 O.3     1  lig        -0.5805
@<TRIPOS>BOND
     1    31    47    2
     2    31    33    1
     3    29    31    1
     4    33    35    1
     5     5    33    1
     6     6    33    1
     7    29    30    2
     8     2    29    1
     9    30    32    1
    10    30    40    1
    11    32    34    1
    12     3    32    1
    13     4    32    1
    14    35    40    1
    15    40    42    1
    16    19    40    1
    17     9    35    1
    18    10    35    1
    19    41    42    1
    20    37    42    1
    21    21    42    1
    22    34    41    1
    23    41    43    1
    24    20    41    1
    25     7    34    1
    26     8    34    1
    27    37    39    1
    28    13    37    1
    29    14    37    1
    30    39    45    1
    31    17    39    1
    32    18    39    1
    33    43    45    1
    34    45    46    1
    35    44    45    1
    36    36    43    1
    37    22    43    1
    38    23    46    1
    39    24    46    1
    40    25    46    1
    41    44    48    1
    42    38    44    1
    43    28    44    1
    44    26    48    1
    45    36    38    1
    46    15    38    1
    47    16    38    1
    48    11    36    1
    49    12    36    1
    50    27    28    3
    51     1    27    1
@<TRIPOS>SUBSTRUCTURE
     1 lig         1 TEMP              0 ****  ****    0 ROOT


########## Name:		ligand
########## HA_RMSDs:		17.9244
########## HA_RMSDh:		17.8668
########## HA_RMSDm:		14.9121
########## Cluster Size:	1
##########    Grid Score:           -9.658344
##########      Grid_vdw:           -9.080221
##########       Grid_es:           -0.578123
##########    Int_energy:            3.015589

@<TRIPOS>MOLECULE
ligand
 48 51 1 0 0
SMALL
No Charge or Current Charge


@<TRIPOS>ATOM
      1 H1          1.6514   22.0337   14.5970 H       1  lig         0.1670
      2 H2          3.0740   24.5682    5.4759 H       1  lig         0.1473
      3 H3          3.8545   25.5276    7.4860 H       1  lig         0.0559
      4 H4          5.5113   24.9701    7.5084 H       1  lig         0.0575
      5 H5          4.6729   20.9444    5.0441 H       1  lig         0.0688
      6 H6          3.0679   20.2195    5.1154 H       1  lig         0.0740
      7 H7          3.4211   24.7426    9.6793 H       1  lig         0.0477
      8 H8          5.0218   25.4670    9.7749 H       1  lig         0.0465
      9 H9          4.3918   20.0309    7.2525 H       1  lig         0.0495
     10 H10         2.8181   20.7988    7.4681 H       1  lig         0.0527
     11 H11         4.6739   25.1077   12.2841 H       1  lig         0.0459
     12 H12         6.3804   24.7888   11.9075 H       1  lig         0.0459
     13 H13         5.8472   20.4578    9.4598 H       1  lig         0.0438
     14 H14         4.1678   20.0044    9.4010 H       1  lig         0.0425
     15 H15         6.7184   23.7974   13.9092 H       1  lig         0.0681
     16 H16         5.1230   24.1859   14.4376 H       1  lig         0.0571
     17 H17         5.1412   19.8132   11.6869 H       1  lig         0.0423
     18 H18         3.7195   20.8119   11.5729 H       1  lig         0.0489
     19 H19         5.5348   22.0801    7.3914 H       1  lig         0.0634
     20 H20         6.0372   23.3309    9.6254 H       1  lig         0.0564
     21 H21         3.4880   22.2169    9.3470 H       1  lig         0.0555
     22 H22         3.9965   23.1834   11.5140 H       1  lig         0.0551
     23 H23         7.6524   22.4505   12.3406 H       1  lig         0.0433
     24 H24         7.4021   20.7448   12.0805 H       1  lig         0.0424
     25 H25         7.3525   21.8490   10.7115 H       1  lig         0.0357
     26 H26         5.7297   21.6896   15.3095 H       1  lig         0.4072
     27 C1          2.6553   22.0448   14.2316 C.1     1  lig        -0.1335
     28 C2          3.8640   22.0831   13.8230 C.1     1  lig        -0.1688
     29 C3          3.3634   23.5997    5.8665 C.2     1  lig        -0.2674
     30 C4          4.1131   23.3943    7.0739 C.2     1  lig        -0.0292
     31 C5          3.0686   22.3639    5.0938 C.2     1  lig         0.5673
     32 C6          4.4950   24.7026    7.8076 C.3     1  lig        -0.0559
     33 C7          3.6787   21.0252    5.4832 C.3     1  lig        -0.1823
     34 C8          4.4574   24.6338    9.3600 C.3     1  lig        -0.0728
     35 C9          3.8158   20.9339    7.0403 C.3     1  lig        -0.0705
     36 C10         5.4514   24.3408   12.2537 C.3     1  lig        -0.0740
     37 C11         4.8452   20.7717    9.7619 C.3     1  lig        -0.0723
     38 C12         5.6675   23.6960   13.6413 C.3     1  lig        -0.0690
     39 C13         4.7780   20.7706   11.3127 C.3     1  lig        -0.0643
     40 C14         4.4874   22.1832    7.6882 C.3     1  lig        -0.0353
     41 C15         4.9825   23.2722    9.9035 C.3     1  lig        -0.0466
     42 C16         4.5598   22.1596    9.1284 C.3     1  lig        -0.0538
     43 C17         5.0751   23.1950   11.3312 C.3     1  lig        -0.0659
     44 C18         5.3140   22.2072   13.4904 C.3     1  lig         0.2372
     45 C19         5.5383   21.9149   12.0107 C.3     1  lig        -0.0680
     46 C20         7.0819   21.7390   11.7625 C.3     1  lig        -0.0802
     47 O1          2.3970   22.4993    4.1292 O.2     1  lig        -0.5348
     48 O2          6.0379   21.4024   14.4267 O.3     1  lig        -0.5805
@<TRIPOS>BOND
     1    31    47    2
     2    31    33    1
     3    29    31    1
     4    33    35    1
     5     5    33    1
     6     6    33    1
     7    29    30    2
     8     2    29    1
     9    30    32    1
    10    30    40    1
    11    32    34    1
    12     3    32    1
    13     4    32    1
    14    35    40    1
    15    40    42    1
    16    19    40    1
    17     9    35    1
    18    10    35    1
    19    41    42    1
    20    37    42    1
    21    21    42    1
    22    34    41    1
    23    41    43    1
    24    20    41    1
    25     7    34    1
    26     8    34    1
    27    37    39    1
    28    13    37    1
    29    14    37    1
    30    39    45    1
    31    17    39    1
    32    18    39    1
    33    43    45    1
    34    45    46    1
    35    44    45    1
    36    36    43    1
    37    22    43    1
    38    23    46    1
    39    24    46    1
    40    25    46    1
    41    44    48    1
    42    38    44    1
    43    28    44    1
    44    26    48    1
    45    36    38    1
    46    15    38    1
    47    16    38    1
    48    11    36    1
    49    12    36    1
    50    27    28    3
    51     1    27    1
@<TRIPOS>SUBSTRUCTURE
     1 lig         1 TEMP              0 ****  ****    0 ROOT


########## Name:		ligand
########## HA_RMSDs:		17.7747
########## HA_RMSDh:		17.7747
########## HA_RMSDm:		13.5226
########## Cluster Size:	3
##########    Grid Score:           -9.576652
##########      Grid_vdw:           -9.592967
##########       Grid_es:            0.016315
##########    Int_energy:            3.188652

@<TRIPOS>MOLECULE
ligand
 48 51 1 0 0
SMALL
No Charge or Current Charge


@<TRIPOS>ATOM
      1 H1          6.7660   25.7430    9.6235 H       1  lig         0.1670
      2 H2         11.6565   22.1216    2.4300 H       1  lig         0.1473
      3 H3         11.5395   21.3415    4.6544 H       1  lig         0.0559
      4 H4         10.4216   20.0076    4.4889 H       1  lig         0.0575
      5 H5          8.0506   21.8580    0.7557 H       1  lig         0.0688
      6 H6          8.0071   23.6087    0.5560 H       1  lig         0.0740
      7 H7         10.3109   22.3247    6.4260 H       1  lig         0.0477
      8 H8         10.3015   20.6014    6.7816 H       1  lig         0.0465
      9 H9          6.6481   22.7475    2.4970 H       1  lig         0.0495
     10 H10         7.8395   23.9637    2.9600 H       1  lig         0.0527
     11 H11         9.3068   21.3995    8.9997 H       1  lig         0.0459
     12 H12         8.5065   19.8800    8.5455 H       1  lig         0.0459
     13 H13         5.7500   21.5578    4.7220 H       1  lig         0.0438
     14 H14         6.0122   23.2636    4.4961 H       1  lig         0.0425
     15 H15         6.8692   20.1953   10.0698 H       1  lig         0.0681
     16 H16         7.6384   21.6086   10.6914 H       1  lig         0.0571
     17 H17         4.7353   22.7486    6.5731 H       1  lig         0.0423
     18 H18         6.1762   23.6967    6.8103 H       1  lig         0.0489
     19 H19         7.9461   20.9874    3.3584 H       1  lig         0.0634
     20 H20         8.1143   20.3932    5.8934 H       1  lig         0.0564
     21 H21         8.2046   23.1060    5.2231 H       1  lig         0.0555
     22 H22         8.1458   22.5969    7.5950 H       1  lig         0.0551
     23 H23         5.8577   19.5867    8.1325 H       1  lig         0.0433
     24 H24         4.5587   20.3828    7.2848 H       1  lig         0.0424
     25 H25         5.9791   19.8491    6.3941 H       1  lig         0.0357
     26 H26         4.7228   20.7844    9.5737 H       1  lig         0.4072
     27 C1          6.6578   24.6860    9.5116 C.1     1  lig        -0.1335
     28 C2          6.4925   23.4288    9.3653 C.1     1  lig        -0.1688
     29 C3         10.5807   22.2493    2.4550 C.2     1  lig        -0.2674
     30 C4          9.7266   21.7961    3.5167 C.2     1  lig        -0.0292
     31 C5          9.8723   22.8498    1.2936 C.2     1  lig         0.5673
     32 C6         10.4775   21.0841    4.6678 C.3     1  lig        -0.0559
     33 C7          8.3546   22.8109    1.1887 C.3     1  lig        -0.1823
     34 C8          9.9279   21.3594    6.0954 C.3     1  lig        -0.0728
     35 C9          7.7177   22.9331    2.6140 C.3     1  lig        -0.0705
     36 C10         8.3576   20.9459    8.7052 C.3     1  lig        -0.0740
     37 C11         6.3033   22.4167    5.1091 C.3     1  lig        -0.0723
     38 C12         7.2663   21.1663    9.7768 C.3     1  lig        -0.0690
     39 C13         5.8241   22.6953    6.5590 C.3     1  lig        -0.0643
     40 C14         8.3357   21.9618    3.6658 C.3     1  lig        -0.0353
     41 C15         8.3725   21.4287    6.1260 C.3     1  lig        -0.0466
     42 C16         7.8200   22.1038    5.0052 C.3     1  lig        -0.0538
     43 C17         7.8068   21.5691    7.4349 C.3     1  lig        -0.0659
     44 C18         6.1589   21.9968    9.1072 C.3     1  lig         0.2372
     45 C19         6.3012   21.6859    7.6211 C.3     1  lig        -0.0680
     46 C20         5.6449   20.2847    7.3367 C.3     1  lig        -0.0802
     47 O1         10.5572   23.2893    0.4348 O.2     1  lig        -0.5348
     48 O2          4.8831   21.7407    9.7033 O.3     1  lig        -0.5805
@<TRIPOS>BOND
     1    31    47    2
     2    31    33    1
     3    29    31    1
     4    33    35    1
     5     5    33    1
     6     6    33    1
     7    29    30    2
     8     2    29    1
     9    30    32    1
    10    30    40    1
    11    32    34    1
    12     3    32    1
    13     4    32    1
    14    35    40    1
    15    40    42    1
    16    19    40    1
    17     9    35    1
    18    10    35    1
    19    41    42    1
    20    37    42    1
    21    21    42    1
    22    34    41    1
    23    41    43    1
    24    20    41    1
    25     7    34    1
    26     8    34    1
    27    37    39    1
    28    13    37    1
    29    14    37    1
    30    39    45    1
    31    17    39    1
    32    18    39    1
    33    43    45    1
    34    45    46    1
    35    44    45    1
    36    36    43    1
    37    22    43    1
    38    23    46    1
    39    24    46    1
    40    25    46    1
    41    44    48    1
    42    38    44    1
    43    28    44    1
    44    26    48    1
    45    36    38    1
    46    15    38    1
    47    16    38    1
    48    11    36    1
    49    12    36    1
    50    27    28    3
    51     1    27    1
@<TRIPOS>SUBSTRUCTURE
     1 lig         1 TEMP              0 ****  ****    0 ROOT


########## Name:		ligand
########## HA_RMSDs:		19.1599
########## HA_RMSDh:		19.0183
########## HA_RMSDm:		14.4338
########## Cluster Size:	1
##########    Grid Score:           -9.479897
##########      Grid_vdw:           -9.283249
##########       Grid_es:           -0.196648
##########    Int_energy:            3.092523

@<TRIPOS>MOLECULE
ligand
 48 51 1 0 0
SMALL
No Charge or Current Charge


@<TRIPOS>ATOM
      1 H1         31.3978    8.3075   29.1625 H       1  lig         0.1670
      2 H2         28.5151   16.9182   32.1512 H       1  lig         0.1473
      3 H3         29.2430   15.0763   33.4348 H       1  lig         0.0559
      4 H4         30.8818   15.5521   33.8141 H       1  lig         0.0575
      5 H5         31.5183   18.1916   29.8631 H       1  lig         0.0688
      6 H6         30.5927   17.7972   28.4159 H       1  lig         0.0740
      7 H7         29.9088   12.9594   32.6041 H       1  lig         0.0477
      8 H8         30.8785   13.1929   34.0536 H       1  lig         0.0465
      9 H9         32.3773   16.1155   29.0016 H       1  lig         0.0495
     10 H10        30.7683   15.4072   28.8522 H       1  lig         0.0527
     11 H11        31.4903   10.7431   33.6408 H       1  lig         0.0459
     12 H12        32.9361   11.5848   34.2381 H       1  lig         0.0459
     13 H13        33.9798   14.3248   30.1840 H       1  lig         0.0438
     14 H14        32.8201   14.0023   28.9268 H       1  lig         0.0425
     15 H15        34.2807    9.8765   33.6236 H       1  lig         0.0681
     16 H16        32.9339    8.9095   33.1476 H       1  lig         0.0571
     17 H17        34.3622   12.0877   29.3336 H       1  lig         0.0423
     18 H18        32.6674   11.7062   29.4505 H       1  lig         0.0489
     19 H19        32.3200   16.0260   31.3497 H       1  lig         0.0634
     20 H20        32.7382   13.8617   32.7457 H       1  lig         0.0564
     21 H21        31.1380   13.6059   30.4674 H       1  lig         0.0555
     22 H22        31.6849   11.5424   31.6213 H       1  lig         0.0551
     23 H23        35.2728   11.7868   32.9070 H       1  lig         0.0433
     24 H24        35.8516   12.1811   31.3104 H       1  lig         0.0424
     25 H25        34.8660   13.3439   32.1891 H       1  lig         0.0357
     26 H26        35.2511    9.6941   30.2953 H       1  lig         0.4072
     27 C1         32.0169    8.8253   29.8624 C.1     1  lig        -0.1335
     28 C2         32.7878    9.4314   30.6796 C.1     1  lig        -0.1688
     29 C3         29.3494   16.7381   31.4834 C.2     1  lig        -0.2674
     30 C4         30.4087   15.8005   31.7306 C.2     1  lig        -0.0292
     31 C5         29.5095   17.5541   30.2507 C.2     1  lig         0.5673
     32 C6         30.2720   15.0354   33.0691 C.3     1  lig        -0.0559
     33 C7         30.7912   17.5037   29.4317 C.3     1  lig        -0.1823
     34 C8         30.7184   13.5469   33.0368 C.3     1  lig        -0.0728
     35 C9         31.3929   16.0586   29.4705 C.3     1  lig        -0.0705
     36 C10        32.5016   11.0678   33.3851 C.3     1  lig        -0.0740
     37 C11        33.0903   13.7374   29.9440 C.3     1  lig        -0.0723
     38 C12        33.3976    9.8736   32.9861 C.3     1  lig        -0.0690
     39 C13        33.4780   12.2344   29.9542 C.3     1  lig        -0.0643
     40 C14        31.4978   15.4579   30.9057 C.3     1  lig        -0.0353
     41 C15        31.9861   13.3296   32.1589 C.3     1  lig        -0.0466
     42 C16        31.9793   14.0997   30.9655 C.3     1  lig        -0.0538
     43 C17        32.5073   11.9953   32.1829 C.3     1  lig        -0.0659
     44 C18        33.8142   10.1100   31.5249 C.3     1  lig         0.2372
     45 C19        33.7224   11.6217   31.3469 C.3     1  lig        -0.0680
     46 C20        34.9999   12.2805   31.9864 C.3     1  lig        -0.0802
     47 O1         28.6184   18.2879   29.9911 O.2     1  lig        -0.5348
     48 O2         35.0764    9.4993   31.2379 O.3     1  lig        -0.5805
@<TRIPOS>BOND
     1    31    47    2
     2    31    33    1
     3    29    31    1
     4    33    35    1
     5     5    33    1
     6     6    33    1
     7    29    30    2
     8     2    29    1
     9    30    32    1
    10    30    40    1
    11    32    34    1
    12     3    32    1
    13     4    32    1
    14    35    40    1
    15    40    42    1
    16    19    40    1
    17     9    35    1
    18    10    35    1
    19    41    42    1
    20    37    42    1
    21    21    42    1
    22    34    41    1
    23    41    43    1
    24    20    41    1
    25     7    34    1
    26     8    34    1
    27    37    39    1
    28    13    37    1
    29    14    37    1
    30    39    45    1
    31    17    39    1
    32    18    39    1
    33    43    45    1
    34    45    46    1
    35    44    45    1
    36    36    43    1
    37    22    43    1
    38    23    46    1
    39    24    46    1
    40    25    46    1
    41    44    48    1
    42    38    44    1
    43    28    44    1
    44    26    48    1
    45    36    38    1
    46    15    38    1
    47    16    38    1
    48    11    36    1
    49    12    36    1
    50    27    28    3
    51     1    27    1
@<TRIPOS>SUBSTRUCTURE
     1 lig         1 TEMP              0 ****  ****    0 ROOT


########## Name:		ligand
########## HA_RMSDs:		17.8421
########## HA_RMSDh:		17.8192
########## HA_RMSDm:		15.1583
########## Cluster Size:	1
##########    Grid Score:           -9.438077
##########      Grid_vdw:           -8.800673
##########       Grid_es:           -0.637404
##########    Int_energy:            3.030497

@<TRIPOS>MOLECULE
ligand
 48 51 1 0 0
SMALL
No Charge or Current Charge


@<TRIPOS>ATOM
      1 H1          7.3038   28.9302   16.9874 H       1  lig         0.1670
      2 H2          6.2310   22.9435    9.6592 H       1  lig         0.1473
      3 H3          5.2076   22.9895   11.7854 H       1  lig         0.0559
      4 H4          3.6279   23.6250   11.3891 H       1  lig         0.0575
      5 H5          5.0911   26.1486    7.5847 H       1  lig         0.0688
      6 H6          6.7596   26.7137    7.5268 H       1  lig         0.0740
      7 H7          5.5737   24.5972   13.4872 H       1  lig         0.0477
      8 H8          3.8979   24.1029   13.6960 H       1  lig         0.0465
      9 H9          5.3199   27.8898    9.2297 H       1  lig         0.0495
     10 H10         6.7767   27.1718    9.9191 H       1  lig         0.0527
     11 H11         4.1086   25.4670   15.8504 H       1  lig         0.0459
     12 H12         2.4803   25.7214   15.1875 H       1  lig         0.0459
     13 H13         3.6748   28.5501   11.2373 H       1  lig         0.0438
     14 H14         5.3950   28.8096   11.1831 H       1  lig         0.0425
     15 H15         2.1190   27.4911   16.5445 H       1  lig         0.0681
     16 H16         3.6187   27.2466   17.3610 H       1  lig         0.0571
     17 H17         4.2927   30.0252   13.0583 H       1  lig         0.0423
     18 H18         5.5953   28.9702   13.5291 H       1  lig         0.0489
     19 H19         3.9433   26.1847   10.0795 H       1  lig         0.0634
     20 H20         3.1464   26.0421   12.5599 H       1  lig         0.0564
     21 H21         5.8195   26.7399   12.1299 H       1  lig         0.0555
     22 H22         5.0538   26.8259   14.4309 H       1  lig         0.0551
     23 H23         1.4569   28.1095   14.4645 H       1  lig         0.0433
     24 H24         1.9181   29.5195   13.5486 H       1  lig         0.0424
     25 H25         1.9366   27.9381   12.7775 H       1  lig         0.0357
     26 H26         3.3137   29.9655   17.0172 H       1  lig         0.4072
     27 C1          6.3279   28.8745   16.5561 C.1     1  lig        -0.1335
     28 C2          5.1497   28.7895   16.0725 C.1     1  lig        -0.1688
     29 C3          6.0277   24.0048    9.5769 C.2     1  lig        -0.2674
     30 C4          5.2240   24.7585   10.4978 C.2     1  lig        -0.0292
     31 C5          6.5152   24.7698    8.3986 C.2     1  lig         0.5673
     32 C6          4.6447   23.9181   11.6613 C.3     1  lig        -0.0559
     33 C7          6.0365   26.1883    8.1255 C.3     1  lig        -0.1823
     34 C8          4.5815   24.6366   13.0381 C.3     1  lig        -0.0728
     35 C9          5.8024   26.9422    9.4778 C.3     1  lig        -0.0705
     36 C10         3.4280   26.2037   15.4174 C.3     1  lig        -0.0740
     37 C11         4.6108   28.3208   11.7522 C.3     1  lig        -0.0723
     38 C12         3.1907   27.3909   16.3778 C.3     1  lig        -0.0690
     39 C13         4.5692   28.9755   13.1590 C.3     1  lig        -0.0643
     40 C14         4.9487   26.1400   10.5071 C.3     1  lig        -0.0353
     41 C15         4.1789   26.1350   12.9041 C.3     1  lig        -0.0466
     42 C16         4.7791   26.7783   11.7892 C.3     1  lig        -0.0538
     43 C17         3.9963   26.8178   14.1504 C.3     1  lig        -0.0659
     44 C18         3.7218   28.6439   15.6621 C.3     1  lig         0.2372
     45 C19         3.6362   28.2958   14.1799 C.3     1  lig        -0.0680
     46 C20         2.1440   28.4636   13.7107 C.3     1  lig        -0.0802
     47 O1          7.2326   24.1881    7.6591 O.2     1  lig        -0.5348
     48 O2          3.0311   29.8214   16.0919 O.3     1  lig        -0.5805
@<TRIPOS>BOND
     1    31    47    2
     2    31    33    1
     3    29    31    1
     4    33    35    1
     5     5    33    1
     6     6    33    1
     7    29    30    2
     8     2    29    1
     9    30    32    1
    10    30    40    1
    11    32    34    1
    12     3    32    1
    13     4    32    1
    14    35    40    1
    15    40    42    1
    16    19    40    1
    17     9    35    1
    18    10    35    1
    19    41    42    1
    20    37    42    1
    21    21    42    1
    22    34    41    1
    23    41    43    1
    24    20    41    1
    25     7    34    1
    26     8    34    1
    27    37    39    1
    28    13    37    1
    29    14    37    1
    30    39    45    1
    31    17    39    1
    32    18    39    1
    33    43    45    1
    34    45    46    1
    35    44    45    1
    36    36    43    1
    37    22    43    1
    38    23    46    1
    39    24    46    1
    40    25    46    1
    41    44    48    1
    42    38    44    1
    43    28    44    1
    44    26    48    1
    45    36    38    1
    46    15    38    1
    47    16    38    1
    48    11    36    1
    49    12    36    1
    50    27    28    3
    51     1    27    1
@<TRIPOS>SUBSTRUCTURE
     1 lig         1 TEMP              0 ****  ****    0 ROOT


########## Name:		ligand
########## HA_RMSDs:		17.0082
########## HA_RMSDh:		16.6604
########## HA_RMSDm:		12.4414
########## Cluster Size:	1
##########    Grid Score:           -9.370569
##########      Grid_vdw:           -9.671963
##########       Grid_es:            0.301394
##########    Int_energy:            3.010431

@<TRIPOS>MOLECULE
ligand
 48 51 1 0 0
SMALL
No Charge or Current Charge


@<TRIPOS>ATOM
      1 H1         27.7589   15.7950   36.7395 H       1  lig         0.1670
      2 H2         18.5187   18.3703   36.6058 H       1  lig         0.1473
      3 H3         20.4439   19.4920   35.8275 H       1  lig         0.0559
      4 H4         20.3181   19.2280   34.1039 H       1  lig         0.0575
      5 H5         17.9630   15.0666   34.4489 H       1  lig         0.0688
      6 H6         18.1845   14.0785   35.8916 H       1  lig         0.0740
      7 H7         22.6719   18.6910   35.9217 H       1  lig         0.0477
      8 H8         22.6169   19.6815   34.4684 H       1  lig         0.0465
      9 H9         20.1929   14.1656   34.3702 H       1  lig         0.0495
     10 H10        20.5469   14.6561   36.0276 H       1  lig         0.0527
     11 H11        25.1494   19.3212   34.5243 H       1  lig         0.0459
     12 H12        24.6204   19.2922   32.8287 H       1  lig         0.0459
     13 H13        22.2558   14.8830   32.8202 H       1  lig         0.0438
     14 H14        22.3531   14.1467   34.3943 H       1  lig         0.0425
     15 H15        26.5884   18.4164   32.1477 H       1  lig         0.0681
     16 H16        27.2580   18.5363   33.7328 H       1  lig         0.0571
     17 H17        24.5416   14.1741   33.2031 H       1  lig         0.0423
     18 H18        24.5522   14.9111   34.7805 H       1  lig         0.0489
     19 H19        20.2155   16.3831   33.5913 H       1  lig         0.0634
     20 H20        22.3873   17.7489   33.1162 H       1  lig         0.0564
     21 H21        22.3490   16.2078   35.4487 H       1  lig         0.0555
     22 H22        24.4550   17.2932   34.9244 H       1  lig         0.0551
     23 H23        24.9486   17.2169   31.1380 H       1  lig         0.0433
     24 H24        24.7219   15.4885   31.1115 H       1  lig         0.0424
     25 H25        23.3571   16.5384   31.4731 H       1  lig         0.0357
     26 H26        28.0807   16.2490   32.5907 H       1  lig         0.4072
     27 C1         27.2962   15.9851   35.7954 C.1     1  lig        -0.1335
     28 C2         26.7726   16.2359   34.6587 C.1     1  lig        -0.1688
     29 C3         18.8867   17.4744   36.1197 C.2     1  lig        -0.2674
     30 C4         20.0218   17.4266   35.2414 C.2     1  lig        -0.0292
     31 C5         18.1510   16.1902   36.2638 C.2     1  lig         0.5673
     32 C6         20.7103   18.7963   35.0279 C.3     1  lig        -0.0559
     33 C7         18.4905   14.9847   35.3991 C.3     1  lig        -0.1823
     34 C8         22.2599   18.7551   34.9147 C.3     1  lig        -0.0728
     35 C9         20.0292   14.9515   35.1103 C.3     1  lig        -0.0705
     36 C10        25.0524   18.6987   33.6317 C.3     1  lig        -0.0740
     37 C11        22.6463   15.0264   33.8305 C.3     1  lig        -0.0723
     38 C12        26.4181   18.1303   33.1848 C.3     1  lig        -0.0690
     39 C13        24.1968   15.0467   33.7582 C.3     1  lig        -0.0643
     40 C14        20.6061   16.3111   34.6101 C.3     1  lig        -0.0353
     41 C15        22.7608   17.5158   34.1158 C.3     1  lig        -0.0466
     42 C16        22.0338   16.3309   34.4069 C.3     1  lig        -0.0538
     43 C17        24.1745   17.4860   33.8847 C.3     1  lig        -0.0659
     44 C18        26.3083   16.6000   33.2874 C.3     1  lig         0.2372
     45 C19        24.8160   16.3192   33.1484 C.3     1  lig        -0.0680
     46 C20        24.4290   16.4059   31.6260 C.3     1  lig        -0.0802
     47 O1         17.2510   16.1876   37.0318 O.2     1  lig        -0.5348
     48 O2         27.1791   15.9517   32.3548 O.3     1  lig        -0.5805
@<TRIPOS>BOND
     1    31    47    2
     2    31    33    1
     3    29    31    1
     4    33    35    1
     5     5    33    1
     6     6    33    1
     7    29    30    2
     8     2    29    1
     9    30    32    1
    10    30    40    1
    11    32    34    1
    12     3    32    1
    13     4    32    1
    14    35    40    1
    15    40    42    1
    16    19    40    1
    17     9    35    1
    18    10    35    1
    19    41    42    1
    20    37    42    1
    21    21    42    1
    22    34    41    1
    23    41    43    1
    24    20    41    1
    25     7    34    1
    26     8    34    1
    27    37    39    1
    28    13    37    1
    29    14    37    1
    30    39    45    1
    31    17    39    1
    32    18    39    1
    33    43    45    1
    34    45    46    1
    35    44    45    1
    36    36    43    1
    37    22    43    1
    38    23    46    1
    39    24    46    1
    40    25    46    1
    41    44    48    1
    42    38    44    1
    43    28    44    1
    44    26    48    1
    45    36    38    1
    46    15    38    1
    47    16    38    1
    48    11    36    1
    49    12    36    1
    50    27    28    3
    51     1    27    1
@<TRIPOS>SUBSTRUCTURE
     1 lig         1 TEMP              0 ****  ****    0 ROOT


########## Name:		ligand
########## HA_RMSDs:		16.3761
########## HA_RMSDh:		16.2918
########## HA_RMSDm:		12.2413
########## Cluster Size:	1
##########    Grid Score:           -9.298508
##########      Grid_vdw:           -8.907398
##########       Grid_es:           -0.391109
##########    Int_energy:            3.217791

@<TRIPOS>MOLECULE
ligand
 48 51 1 0 0
SMALL
No Charge or Current Charge


@<TRIPOS>ATOM
      1 H1         14.1905   22.6656   37.6718 H       1  lig         0.1670
      2 H2         23.3769   21.2147   36.4695 H       1  lig         0.1473
      3 H3         21.6641   19.6052   36.6842 H       1  lig         0.0559
      4 H4         21.4339   19.1288   35.0179 H       1  lig         0.0575
      5 H5         22.7764   23.3348   33.1498 H       1  lig         0.0688
      6 H6         22.5757   24.7981   34.1117 H       1  lig         0.0740
      7 H7         19.3590   20.0413   37.0167 H       1  lig         0.0477
      8 H8         19.3990   18.5475   36.0877 H       1  lig         0.0465
      9 H9         20.4172   23.7869   33.2907 H       1  lig         0.0495
     10 H10        20.4705   23.9998   35.0413 H       1  lig         0.0527
     11 H11        16.8986   18.5296   36.6303 H       1  lig         0.0459
     12 H12        17.1142   17.9129   34.9783 H       1  lig         0.0459
     13 H13        18.3487   22.1920   32.6985 H       1  lig         0.0438
     14 H14        18.3478   23.5036   33.8426 H       1  lig         0.0425
     15 H15        14.9106   18.1247   34.5275 H       1  lig         0.0681
     16 H16        14.5630   18.5932   36.1509 H       1  lig         0.0571
     17 H17        16.0581   22.6598   33.3376 H       1  lig         0.0423
     18 H18        16.4845   22.6678   35.0257 H       1  lig         0.0489
     19 H19        20.7823   21.4704   33.4498 H       1  lig         0.0634
     20 H20        18.9411   19.7356   34.0890 H       1  lig         0.0564
     21 H21        19.0095   22.1079   35.5672 H       1  lig         0.0555
     22 H22        17.1576   20.6125   36.0392 H       1  lig         0.0551
     23 H23        16.0320   19.0050   32.7627 H       1  lig         0.0433
     24 H24        15.8413   20.5721   32.0227 H       1  lig         0.0424
     25 H25        17.4542   19.9824   32.4057 H       1  lig         0.0357
     26 H26        13.6511   21.2840   33.7544 H       1  lig         0.4072
     27 C1         14.4005   21.9454   36.9111 C.1     1  lig        -0.1335
     28 C2         14.6465   21.1125   35.9757 C.1     1  lig        -0.1688
     29 C3         22.7339   21.7570   35.7862 C.2     1  lig        -0.2674
     30 C4         21.4881   21.2644   35.2687 C.2     1  lig        -0.0292
     31 C5         23.1630   23.0722   35.2410 C.2     1  lig         0.5673
     32 C6         21.1125   19.8501   35.7731 C.3     1  lig        -0.0559
     33 C7         22.4114   23.7349   34.0956 C.3     1  lig        -0.1823
     34 C8         19.5996   19.6164   36.0424 C.3     1  lig        -0.0728
     35 C9         20.8815   23.4213   34.2088 C.3     1  lig        -0.0705
     36 C10        16.6966   18.7219   35.5740 C.3     1  lig        -0.0740
     37 C11        18.1776   22.4359   33.7497 C.3     1  lig        -0.0723
     38 C12        15.1809   18.8446   35.2990 C.3     1  lig        -0.0690
     39 C13        16.6852   22.1643   34.0790 C.3     1  lig        -0.0643
     40 C14        20.5623   21.9105   34.4263 C.3     1  lig        -0.0353
     41 C15        18.6967   20.3141   34.9827 C.3     1  lig        -0.0466
     42 C16        19.1653   21.6015   34.6084 C.3     1  lig        -0.0538
     43 C17        17.2969   20.0397   35.1175 C.3     1  lig        -0.0659
     44 C18        14.9462   20.2724   34.7787 C.3     1  lig         0.2372
     45 C19        16.2867   20.6789   34.1763 C.3     1  lig        -0.0680
     46 C20        16.4223   20.0117   32.7580 C.3     1  lig        -0.0802
     47 O1         24.1532   23.5292   35.6996 O.2     1  lig        -0.5348
     48 O2         13.8044   20.3318   33.9177 O.3     1  lig        -0.5805
@<TRIPOS>BOND
     1    31    47    2
     2    31    33    1
     3    29    31    1
     4    33    35    1
     5     5    33    1
     6     6    33    1
     7    29    30    2
     8     2    29    1
     9    30    32    1
    10    30    40    1
    11    32    34    1
    12     3    32    1
    13     4    32    1
    14    35    40    1
    15    40    42    1
    16    19    40    1
    17     9    35    1
    18    10    35    1
    19    41    42    1
    20    37    42    1
    21    21    42    1
    22    34    41    1
    23    41    43    1
    24    20    41    1
    25     7    34    1
    26     8    34    1
    27    37    39    1
    28    13    37    1
    29    14    37    1
    30    39    45    1
    31    17    39    1
    32    18    39    1
    33    43    45    1
    34    45    46    1
    35    44    45    1
    36    36    43    1
    37    22    43    1
    38    23    46    1
    39    24    46    1
    40    25    46    1
    41    44    48    1
    42    38    44    1
    43    28    44    1
    44    26    48    1
    45    36    38    1
    46    15    38    1
    47    16    38    1
    48    11    36    1
    49    12    36    1
    50    27    28    3
    51     1    27    1
@<TRIPOS>SUBSTRUCTURE
     1 lig         1 TEMP              0 ****  ****    0 ROOT


########## Name:		ligand
########## HA_RMSDs:		18.5715
########## HA_RMSDh:		18.2159
########## HA_RMSDm:		15.3405
########## Cluster Size:	2
##########    Grid Score:           -9.187412
##########      Grid_vdw:           -8.834804
##########       Grid_es:           -0.352608
##########    Int_energy:            3.268382

@<TRIPOS>MOLECULE
ligand
 48 51 1 0 0
SMALL
No Charge or Current Charge


@<TRIPOS>ATOM
      1 H1          5.7540   24.2277    5.6225 H       1  lig         0.1670
      2 H2          1.6524   25.8288   13.6030 H       1  lig         0.1473
      3 H3          1.0845   24.2967   11.9000 H       1  lig         0.0559
      4 H4          1.6297   22.7909   12.6013 H       1  lig         0.0575
      5 H5          5.1244   24.7507   15.2335 H       1  lig         0.0688
      6 H6          5.8561   26.2598   14.6915 H       1  lig         0.0740
      7 H7          2.2691   23.9381    9.8795 H       1  lig         0.0477
      8 H8          1.5691   22.3712   10.2682 H       1  lig         0.0465
      9 H9          6.4374   24.2541   13.2791 H       1  lig         0.0495
     10 H10         5.7299   25.5806   12.3557 H       1  lig         0.0527
     11 H11         2.3946   21.7878    7.9177 H       1  lig         0.0459
     12 H12         2.6303   20.3679    8.9588 H       1  lig         0.0459
     13 H13         6.4267   22.0593   11.7443 H       1  lig         0.0438
     14 H14         6.8677   23.6673   11.2450 H       1  lig         0.0425
     15 H15         3.9786   19.3796    7.4392 H       1  lig         0.0681
     16 H16         3.7025   20.6357    6.2896 H       1  lig         0.0571
     17 H17         7.4809   21.9313    9.5657 H       1  lig         0.0423
     18 H18         6.4842   23.2237    8.9589 H       1  lig         0.0489
     19 H19         4.4462   23.0063   13.2236 H       1  lig         0.0634
     20 H20         3.6351   21.6292   11.1612 H       1  lig         0.0564
     21 H21         4.6872   24.1687   10.6500 H       1  lig         0.0555
     22 H22         4.1427   22.8299    8.7008 H       1  lig         0.0551
     23 H23         5.0032   19.1859    9.4540 H       1  lig         0.0433
     24 H24         6.6307   19.6285    9.8956 H       1  lig         0.0424
     25 H25         5.2893   20.1077   10.9284 H       1  lig         0.0357
     26 H26         6.2398   19.1684    7.6456 H       1  lig         0.4072
     27 C1          5.7193   23.2831    6.1203 C.1     1  lig        -0.1335
     28 C2          5.6575   22.1708    6.7435 C.1     1  lig        -0.1688
     29 C3          2.6759   25.4810   13.5266 C.2     1  lig        -0.2674
     30 C4          3.1014   24.3528   12.7465 C.2     1  lig        -0.0292
     31 C5          3.7458   26.1233   14.3352 C.2     1  lig         0.5673
     32 C6          1.9527   23.6395   11.9934 C.3     1  lig        -0.0559
     33 C7          5.1314   25.5036   14.4456 C.3     1  lig        -0.1823
     34 C8          2.3119   23.1037   10.5792 C.3     1  lig        -0.0728
     35 C9          5.5129   24.8058   13.0968 C.3     1  lig        -0.0705
     36 C10         3.1391   21.1303    8.3727 C.3     1  lig        -0.0740
     37 C11         6.1792   22.8546   11.0372 C.3     1  lig        -0.0723
     38 C12         4.0320   20.4592    7.3049 C.3     1  lig        -0.0690
     39 C13         6.4717   22.3422    9.6014 C.3     1  lig        -0.0643
     40 C14         4.4048   23.8597   12.5412 C.3     1  lig        -0.0353
     41 C15         3.7492   22.5072   10.5214 C.3     1  lig        -0.0466
     42 C16         4.6981   23.2606   11.2624 C.3     1  lig        -0.0538
     43 C17         4.0927   21.8976    9.2712 C.3     1  lig        -0.0659
     44 C18         5.4675   20.9425    7.5703 C.3     1  lig         0.2372
     45 C19         5.4758   21.3026    9.0520 C.3     1  lig        -0.0680
     46 C20         5.5957   19.9764    9.8898 C.3     1  lig        -0.0802
     47 O1          3.4344   27.0938   14.9360 O.2     1  lig        -0.5348
     48 O2          6.4308   19.9789    7.1324 O.3     1  lig        -0.5805
@<TRIPOS>BOND
     1    31    47    2
     2    31    33    1
     3    29    31    1
     4    33    35    1
     5     5    33    1
     6     6    33    1
     7    29    30    2
     8     2    29    1
     9    30    32    1
    10    30    40    1
    11    32    34    1
    12     3    32    1
    13     4    32    1
    14    35    40    1
    15    40    42    1
    16    19    40    1
    17     9    35    1
    18    10    35    1
    19    41    42    1
    20    37    42    1
    21    21    42    1
    22    34    41    1
    23    41    43    1
    24    20    41    1
    25     7    34    1
    26     8    34    1
    27    37    39    1
    28    13    37    1
    29    14    37    1
    30    39    45    1
    31    17    39    1
    32    18    39    1
    33    43    45    1
    34    45    46    1
    35    44    45    1
    36    36    43    1
    37    22    43    1
    38    23    46    1
    39    24    46    1
    40    25    46    1
    41    44    48    1
    42    38    44    1
    43    28    44    1
    44    26    48    1
    45    36    38    1
    46    15    38    1
    47    16    38    1
    48    11    36    1
    49    12    36    1
    50    27    28    3
    51     1    27    1
@<TRIPOS>SUBSTRUCTURE
     1 lig         1 TEMP              0 ****  ****    0 ROOT


########## Name:		ligand
########## HA_RMSDs:		18.2468
########## HA_RMSDh:		18.2367
########## HA_RMSDm:		14.6723
########## Cluster Size:	1
##########    Grid Score:           -9.153086
##########      Grid_vdw:           -8.858042
##########       Grid_es:           -0.295044
##########    Int_energy:            3.188677

@<TRIPOS>MOLECULE
ligand
 48 51 1 0 0
SMALL
No Charge or Current Charge


@<TRIPOS>ATOM
      1 H1          3.4822   25.6458    9.9347 H       1  lig         0.1670
      2 H2          5.6471   18.1280    4.6836 H       1  lig         0.1473
      3 H3          6.9692   19.1919    6.3239 H       1  lig         0.0559
      4 H4          6.7626   18.1102    7.6817 H       1  lig         0.0575
      5 H5          2.3935   16.6044    6.4065 H       1  lig         0.0688
      6 H6          1.3740   17.6675    5.4385 H       1  lig         0.0740
      7 H7          6.3716   21.1055    7.5870 H       1  lig         0.0477
      8 H8          7.4092   20.1720    8.6586 H       1  lig         0.0465
      9 H9          1.7033   18.4251    7.8204 H       1  lig         0.0495
     10 H10         2.1588   19.6430    6.6278 H       1  lig         0.0527
     11 H11         7.2794   22.2890   10.0897 H       1  lig         0.0459
     12 H12         7.2687   20.8823   11.1745 H       1  lig         0.0459
     13 H13         2.6660   19.1779   10.2035 H       1  lig         0.0438
     14 H14         1.8806   20.2022    9.0359 H       1  lig         0.0425
     15 H15         6.6033   22.1411   12.9285 H       1  lig         0.0681
     16 H16         6.7215   23.5942   12.0065 H       1  lig         0.0571
     17 H17         2.1540   21.3001   11.2561 H       1  lig         0.0423
     18 H18         2.8266   22.1790    9.9119 H       1  lig         0.0489
     19 H19         3.9425   17.8794    8.2820 H       1  lig         0.0634
     20 H20         5.5182   19.3065    9.7949 H       1  lig         0.0564
     21 H21         3.8898   20.6989    7.9985 H       1  lig         0.0555
     22 H22         5.1824   22.0586    9.5377 H       1  lig         0.0551
     23 H23         5.2998   20.2843   12.9177 H       1  lig         0.0433
     24 H24         3.5603   20.1741   12.9559 H       1  lig         0.0424
     25 H25         4.4664   19.2142   11.7926 H       1  lig         0.0357
     26 H26         4.5109   22.1109   13.8347 H       1  lig         0.4072
     27 C1          3.8944   24.8311   10.4895 C.1     1  lig        -0.1335
     28 C2          4.3520   23.8512   11.1676 C.1     1  lig        -0.1688
     29 C3          4.8082   18.1948    5.3664 C.2     1  lig        -0.2674
     30 C4          4.8985   18.6175    6.7359 C.2     1  lig        -0.0292
     31 C5          3.4576   17.7446    4.9371 C.2     1  lig         0.5673
     32 C6          6.3326   18.9849    7.1877 C.3     1  lig        -0.0559
     33 C7          2.3229   17.5863    5.9388 C.3     1  lig        -0.1823
     34 C8          6.4373   20.1861    8.1685 C.3     1  lig        -0.0728
     35 C9          2.4414   18.6769    7.0562 C.3     1  lig        -0.0705
     36 C10         6.6861   21.7282   10.8157 C.3     1  lig        -0.0740
     37 C11         2.8047   20.0710    9.5895 C.3     1  lig        -0.0723
     38 C12         6.2625   22.6145   12.0086 C.3     1  lig        -0.0690
     39 C13         2.9692   21.2931   10.5322 C.3     1  lig        -0.0643
     40 C14         3.8665   18.7886    7.6792 C.3     1  lig        -0.0353
     41 C15         5.2811   20.1991    9.2116 C.3     1  lig        -0.0466
     42 C16         4.0244   19.8353    8.6589 C.3     1  lig        -0.0538
     43 C17         5.3894   21.2208   10.2102 C.3     1  lig        -0.0659
     44 C18         4.7257   22.6637   11.9913 C.3     1  lig         0.2372
     45 C19         4.3157   21.3808   11.2763 C.3     1  lig        -0.0680
     46 C20         4.4264   20.1837   12.2911 C.3     1  lig        -0.0802
     47 O1          3.3429   17.4528    3.7962 O.2     1  lig        -0.5348
     48 O2          4.1965   22.8707   13.3049 O.3     1  lig        -0.5805
@<TRIPOS>BOND
     1    31    47    2
     2    31    33    1
     3    29    31    1
     4    33    35    1
     5     5    33    1
     6     6    33    1
     7    29    30    2
     8     2    29    1
     9    30    32    1
    10    30    40    1
    11    32    34    1
    12     3    32    1
    13     4    32    1
    14    35    40    1
    15    40    42    1
    16    19    40    1
    17     9    35    1
    18    10    35    1
    19    41    42    1
    20    37    42    1
    21    21    42    1
    22    34    41    1
    23    41    43    1
    24    20    41    1
    25     7    34    1
    26     8    34    1
    27    37    39    1
    28    13    37    1
    29    14    37    1
    30    39    45    1
    31    17    39    1
    32    18    39    1
    33    43    45    1
    34    45    46    1
    35    44    45    1
    36    36    43    1
    37    22    43    1
    38    23    46    1
    39    24    46    1
    40    25    46    1
    41    44    48    1
    42    38    44    1
    43    28    44    1
    44    26    48    1
    45    36    38    1
    46    15    38    1
    47    16    38    1
    48    11    36    1
    49    12    36    1
    50    27    28    3
    51     1    27    1
@<TRIPOS>SUBSTRUCTURE
     1 lig         1 TEMP              0 ****  ****    0 ROOT


########## Name:		ligand
########## HA_RMSDs:		16.2872
########## HA_RMSDh:		16.2192
########## HA_RMSDm:		10.2532
########## Cluster Size:	1
##########    Grid Score:           -9.105977
##########      Grid_vdw:           -8.794897
##########       Grid_es:           -0.311080
##########    Int_energy:            3.014548

@<TRIPOS>MOLECULE
ligand
 48 51 1 0 0
SMALL
No Charge or Current Charge


@<TRIPOS>ATOM
      1 H1         14.6232   27.5243   31.5762 H       1  lig         0.1670
      2 H2         21.3799   21.0785   33.7015 H       1  lig         0.1473
      3 H3         20.6111   22.9622   34.8976 H       1  lig         0.0559
      4 H4         19.6146   22.2063   36.1190 H       1  lig         0.0575
      5 H5         18.4485   18.3907   33.4613 H       1  lig         0.0688
      6 H6         18.4411   18.5446   31.7054 H       1  lig         0.0740
      7 H7         18.8924   24.4485   34.2258 H       1  lig         0.0477
      8 H8         18.8020   24.4299   35.9830 H       1  lig         0.0465
      9 H9         16.5744   19.7782   32.8670 H       1  lig         0.0495
     10 H10        17.5534   20.8098   31.8230 H       1  lig         0.0527
     11 H11        17.1749   26.3652   35.5912 H       1  lig         0.0459
     12 H12        16.5707   25.3969   36.9525 H       1  lig         0.0459
     13 H13        15.0666   21.3476   34.4279 H       1  lig         0.0438
     14 H14        15.3593   21.5588   32.7252 H       1  lig         0.0425
     15 H15        14.5463   26.3962   36.8669 H       1  lig         0.0681
     16 H16        15.0722   27.4900   35.6411 H       1  lig         0.0571
     17 H17        13.5249   23.0136   33.5784 H       1  lig         0.0423
     18 H18        14.8137   23.8546   32.7641 H       1  lig         0.0489
     19 H19        17.5792   20.6129   34.8211 H       1  lig         0.0634
     20 H20        16.9863   22.9088   35.9097 H       1  lig         0.0564
     21 H21        17.2338   22.8573   33.1252 H       1  lig         0.0555
     22 H22        16.4723   24.9506   34.0878 H       1  lig         0.0551
     23 H23        14.1732   24.1647   37.0343 H       1  lig         0.0433
     24 H24        13.1775   23.1481   36.0271 H       1  lig         0.0424
     25 H25        14.8077   22.6315   36.4410 H       1  lig         0.0357
     26 H26        12.6399   25.4138   36.0918 H       1  lig         0.4072
     27 C1         14.5003   26.9420   32.4635 C.1     1  lig        -0.1335
     28 C2         14.3511   26.2790   33.5440 C.1     1  lig        -0.1688
     29 C3         20.3446   20.8077   33.5309 C.2     1  lig        -0.2674
     30 C4         19.2176   21.4532   34.1437 C.2     1  lig        -0.0292
     31 C5         20.0093   19.6344   32.6812 C.2     1  lig         0.5673
     32 C6         19.5981   22.6070   35.1026 C.3     1  lig        -0.0559
     33 C7         18.5941   19.0773   32.6275 C.3     1  lig        -0.1823
     34 C8         18.6408   23.8314   35.0882 C.3     1  lig        -0.0728
     35 C9         17.5565   20.2428   32.7584 C.3     1  lig        -0.0705
     36 C10        16.3649   25.7166   35.9331 C.3     1  lig        -0.0740
     37 C11        15.4652   22.0466   33.6888 C.3     1  lig        -0.0723
     38 C12        14.9988   26.4367   35.8770 C.3     1  lig        -0.0690
     39 C13        14.5682   23.3134   33.6788 C.3     1  lig        -0.0643
     40 C14        17.8440   21.2121   33.9455 C.3     1  lig        -0.0353
     41 C15        17.1473   23.4115   34.9534 C.3     1  lig        -0.0466
     42 C16        16.9474   22.3374   34.0459 C.3     1  lig        -0.0538
     43 C17        16.2123   24.4931   35.0469 C.3     1  lig        -0.0659
     44 C18        14.1318   25.6501   34.8800 C.3     1  lig         0.2372
     45 C19        14.7189   24.2429   34.8987 C.3     1  lig        -0.0680
     46 C20        14.1992   23.4996   36.1842 C.3     1  lig        -0.0802
     47 O1         20.9142   19.1252   32.1139 O.2     1  lig        -0.5348
     48 O2         12.7398   25.7754   35.1883 O.3     1  lig        -0.5805
@<TRIPOS>BOND
     1    31    47    2
     2    31    33    1
     3    29    31    1
     4    33    35    1
     5     5    33    1
     6     6    33    1
     7    29    30    2
     8     2    29    1
     9    30    32    1
    10    30    40    1
    11    32    34    1
    12     3    32    1
    13     4    32    1
    14    35    40    1
    15    40    42    1
    16    19    40    1
    17     9    35    1
    18    10    35    1
    19    41    42    1
    20    37    42    1
    21    21    42    1
    22    34    41    1
    23    41    43    1
    24    20    41    1
    25     7    34    1
    26     8    34    1
    27    37    39    1
    28    13    37    1
    29    14    37    1
    30    39    45    1
    31    17    39    1
    32    18    39    1
    33    43    45    1
    34    45    46    1
    35    44    45    1
    36    36    43    1
    37    22    43    1
    38    23    46    1
    39    24    46    1
    40    25    46    1
    41    44    48    1
    42    38    44    1
    43    28    44    1
    44    26    48    1
    45    36    38    1
    46    15    38    1
    47    16    38    1
    48    11    36    1
    49    12    36    1
    50    27    28    3
    51     1    27    1
@<TRIPOS>SUBSTRUCTURE
     1 lig         1 TEMP              0 ****  ****    0 ROOT


########## Name:		ligand
########## HA_RMSDs:		16.1801
########## HA_RMSDh:		16.0210
########## HA_RMSDm:		10.9513
########## Cluster Size:	1
##########    Grid Score:           -9.069959
##########      Grid_vdw:           -9.052568
##########       Grid_es:           -0.017390
##########    Int_energy:            3.190678

@<TRIPOS>MOLECULE
ligand
 48 51 1 0 0
SMALL
No Charge or Current Charge


@<TRIPOS>ATOM
      1 H1         19.6763   13.5343   34.3259 H       1  lig         0.1670
      2 H2         17.0932   22.3618   36.3564 H       1  lig         0.1473
      3 H3         18.7599   21.0537   37.3961 H       1  lig         0.0559
      4 H4         20.2089   21.7079   36.6690 H       1  lig         0.0575
      5 H5         18.1115   23.0083   32.5590 H       1  lig         0.0688
      6 H6         16.6797   22.1340   32.0184 H       1  lig         0.0740
      7 H7         19.3362   18.8204   36.8532 H       1  lig         0.0477
      8 H8         20.8406   19.5450   37.4082 H       1  lig         0.0465
      9 H9         18.8227   20.8139   31.8739 H       1  lig         0.0495
     10 H10        17.5681   20.0127   32.8210 H       1  lig         0.0527
     11 H11        21.6612   17.1238   37.3050 H       1  lig         0.0459
     12 H12        22.9848   18.1832   36.7746 H       1  lig         0.0459
     13 H13        21.1487   19.5677   32.3311 H       1  lig         0.0438
     14 H14        19.6065   18.8090   32.0561 H       1  lig         0.0425
     15 H15        24.1462   16.4399   35.9284 H       1  lig         0.0681
     16 H16        22.9945   15.3047   36.5289 H       1  lig         0.0571
     17 H17        21.5065   17.1996   31.9592 H       1  lig         0.0423
     18 H18        20.2488   16.7872   33.0904 H       1  lig         0.0489
     19 H19        20.0148   21.4604   33.7937 H       1  lig         0.0634
     20 H20        21.5536   19.8658   35.1710 H       1  lig         0.0564
     21 H21        19.1023   18.8284   34.3156 H       1  lig         0.0555
     22 H22        20.5999   17.2604   35.4050 H       1  lig         0.0551
     23 H23        24.1810   18.0786   34.3598 H       1  lig         0.0433
     24 H24        23.7446   17.9829   32.6746 H       1  lig         0.0424
     25 H25        23.1352   19.3100   33.6561 H       1  lig         0.0357
     26 H26        24.3998   15.9992   33.7054 H       1  lig         0.4072
     27 C1         20.4950   14.2120   34.4352 C.1     1  lig        -0.1335
     28 C2         21.4786   15.0203   34.5276 C.1     1  lig        -0.1688
     29 C3         17.4748   22.0250   35.3997 C.2     1  lig        -0.2674
     30 C4         18.6815   21.2675   35.2200 C.2     1  lig        -0.0292
     31 C5         16.7902   22.4216   34.1406 C.2     1  lig         0.5673
     32 C6         19.4294   20.9534   36.5382 C.3     1  lig        -0.0559
     33 C7         17.4351   22.1836   32.7829 C.3     1  lig        -0.1823
     34 C8         20.1033   19.5545   36.6074 C.3     1  lig        -0.0728
     35 C9         18.2649   20.8560   32.8116 C.3     1  lig        -0.0705
     36 C10        22.2942   17.4038   36.4597 C.3     1  lig        -0.0740
     37 C11        20.4156   18.8898   32.7748 C.3     1  lig        -0.0723
     38 C12        23.0855   16.1924   35.9171 C.3     1  lig        -0.0690
     39 C13        21.0664   17.4874   32.9141 C.3     1  lig        -0.0643
     40 C14        19.2272   20.7405   34.0331 C.3     1  lig        -0.0353
     41 C15        20.7420   19.1390   35.2493 C.3     1  lig        -0.0466
     42 C16        19.9499   19.4958   34.1257 C.3     1  lig        -0.0538
     43 C17        21.4737   17.9078   35.2856 C.3     1  lig        -0.0659
     44 C18        22.6195   15.9810   34.4671 C.3     1  lig         0.2372
     45 C19        22.1244   17.3544   34.0265 C.3     1  lig        -0.0680
     46 C20        23.3704   18.2449   33.6663 C.3     1  lig        -0.0802
     47 O1         15.7602   22.9906   34.2635 O.2     1  lig        -0.5348
     48 O2         23.6457   15.3769   33.6731 O.3     1  lig        -0.5805
@<TRIPOS>BOND
     1    31    47    2
     2    31    33    1
     3    29    31    1
     4    33    35    1
     5     5    33    1
     6     6    33    1
     7    29    30    2
     8     2    29    1
     9    30    32    1
    10    30    40    1
    11    32    34    1
    12     3    32    1
    13     4    32    1
    14    35    40    1
    15    40    42    1
    16    19    40    1
    17     9    35    1
    18    10    35    1
    19    41    42    1
    20    37    42    1
    21    21    42    1
    22    34    41    1
    23    41    43    1
    24    20    41    1
    25     7    34    1
    26     8    34    1
    27    37    39    1
    28    13    37    1
    29    14    37    1
    30    39    45    1
    31    17    39    1
    32    18    39    1
    33    43    45    1
    34    45    46    1
    35    44    45    1
    36    36    43    1
    37    22    43    1
    38    23    46    1
    39    24    46    1
    40    25    46    1
    41    44    48    1
    42    38    44    1
    43    28    44    1
    44    26    48    1
    45    36    38    1
    46    15    38    1
    47    16    38    1
    48    11    36    1
    49    12    36    1
    50    27    28    3
    51     1    27    1
@<TRIPOS>SUBSTRUCTURE
     1 lig         1 TEMP              0 ****  ****    0 ROOT


########## Name:		ligand
########## HA_RMSDs:		18.4862
########## HA_RMSDh:		18.4116
########## HA_RMSDm:		16.0408
########## Cluster Size:	1
##########    Grid Score:           -9.050600
##########      Grid_vdw:           -7.330746
##########       Grid_es:           -1.719855
##########    Int_energy:            3.010434

@<TRIPOS>MOLECULE
ligand
 48 51 1 0 0
SMALL
No Charge or Current Charge


@<TRIPOS>ATOM
      1 H1          0.3562   20.0288   14.2914 H       1  lig         0.1670
      2 H2          1.8649   26.3693    7.2519 H       1  lig         0.1473
      3 H3          1.9597   26.6168    9.5971 H       1  lig         0.0559
      4 H4          3.6866   26.6206    9.8694 H       1  lig         0.0575
      5 H5          4.7540   23.8901    6.0764 H       1  lig         0.0688
      6 H6          3.5462   22.7556    5.4754 H       1  lig         0.0740
      7 H7          1.5759   24.9205   11.2063 H       1  lig         0.0477
      8 H8          2.7583   25.9856   11.9570 H       1  lig         0.0465
      9 H9          4.5563   22.1220    7.6967 H       1  lig         0.0495
     10 H10         2.7955   22.2284    7.7318 H       1  lig         0.0527
     11 H11         2.2515   24.5547   14.0166 H       1  lig         0.0459
     12 H12         3.9854   24.9411   14.0203 H       1  lig         0.0459
     13 H13         5.4455   22.0311   10.2213 H       1  lig         0.0438
     14 H14         4.0840   21.1618    9.5734 H       1  lig         0.0425
     15 H15         4.4115   23.3743   15.5911 H       1  lig         0.0681
     16 H16         2.7336   23.0197   15.7773 H       1  lig         0.0571
     17 H17         4.7543   20.3609   11.8358 H       1  lig         0.0423
     18 H18         3.0884   20.8457   11.6897 H       1  lig         0.0489
     19 H19         4.8135   24.1777    8.8070 H       1  lig         0.0634
     20 H20         4.5145   24.5035   11.3784 H       1  lig         0.0564
     21 H21         2.6328   22.8925   10.0819 H       1  lig         0.0555
     22 H22         2.4553   23.0016   12.4995 H       1  lig         0.0551
     23 H23         5.9782   23.1248   13.9694 H       1  lig         0.0433
     24 H24         6.4257   21.6815   13.0997 H       1  lig         0.0424
     25 H25         6.1399   23.1755   12.2153 H       1  lig         0.0357
     26 H26         4.1456   20.7397   15.9213 H       1  lig         0.4072
     27 C1          1.3121   20.5015   14.2272 C.1     1  lig        -0.1335
     28 C2          2.4514   21.0758   14.1879 C.1     1  lig        -0.1688
     29 C3          2.4453   25.4605    7.3593 C.2     1  lig        -0.2674
     30 C4          3.0548   25.0176    8.5818 C.2     1  lig        -0.0292
     31 C5          2.7407   24.6176    6.1704 C.2     1  lig         0.5673
     32 C6          2.8169   25.9648    9.7826 C.3     1  lig        -0.0559
     33 C7          3.7551   23.4852    6.2380 C.3     1  lig        -0.1823
     34 C8          2.6085   25.2652   11.1548 C.3     1  lig        -0.0728
     35 C9          3.7147   22.8163    7.6532 C.3     1  lig        -0.0705
     36 C10         3.2577   24.1363   13.9389 C.3     1  lig        -0.0740
     37 C11         4.3693   21.8808   10.3345 C.3     1  lig        -0.0723
     38 C12         3.5204   23.0815   15.0373 C.3     1  lig        -0.0690
     39 C13         4.1083   21.2314   11.7201 C.3     1  lig        -0.0643
     40 C14         3.7758   23.8339    8.8332 C.3     1  lig        -0.0353
     41 C15         3.5336   24.0252   11.3319 C.3     1  lig        -0.0466
     42 C16         3.6656   23.2516   10.1481 C.3     1  lig        -0.0538
     43 C17         3.4637   23.4077   12.6229 C.3     1  lig        -0.0659
     44 C18         3.7773   21.7506   14.3112 C.3     1  lig         0.2372
     45 C19         4.2839   22.1645   12.9338 C.3     1  lig        -0.0680
     46 C20         5.7978   22.5739   13.0584 C.3     1  lig        -0.0802
     47 O1          2.1980   24.9249    5.1649 O.2     1  lig        -0.5348
     48 O2          4.6242   20.8919   15.0819 O.3     1  lig        -0.5805
@<TRIPOS>BOND
     1    31    47    2
     2    31    33    1
     3    29    31    1
     4    33    35    1
     5     5    33    1
     6     6    33    1
     7    29    30    2
     8     2    29    1
     9    30    32    1
    10    30    40    1
    11    32    34    1
    12     3    32    1
    13     4    32    1
    14    35    40    1
    15    40    42    1
    16    19    40    1
    17     9    35    1
    18    10    35    1
    19    41    42    1
    20    37    42    1
    21    21    42    1
    22    34    41    1
    23    41    43    1
    24    20    41    1
    25     7    34    1
    26     8    34    1
    27    37    39    1
    28    13    37    1
    29    14    37    1
    30    39    45    1
    31    17    39    1
    32    18    39    1
    33    43    45    1
    34    45    46    1
    35    44    45    1
    36    36    43    1
    37    22    43    1
    38    23    46    1
    39    24    46    1
    40    25    46    1
    41    44    48    1
    42    38    44    1
    43    28    44    1
    44    26    48    1
    45    36    38    1
    46    15    38    1
    47    16    38    1
    48    11    36    1
    49    12    36    1
    50    27    28    3
    51     1    27    1
@<TRIPOS>SUBSTRUCTURE
     1 lig         1 TEMP              0 ****  ****    0 ROOT


########## Name:		ligand
########## HA_RMSDs:		18.2446
########## HA_RMSDh:		18.0735
########## HA_RMSDm:		14.2691
########## Cluster Size:	1
##########    Grid Score:           -9.019317
##########      Grid_vdw:           -9.276938
##########       Grid_es:            0.257622
##########    Int_energy:            3.010443

@<TRIPOS>MOLECULE
ligand
 48 51 1 0 0
SMALL
No Charge or Current Charge


@<TRIPOS>ATOM
      1 H1          0.8864   22.2618   13.3104 H       1  lig         0.1670
      2 H2          5.8573   23.1932    5.1584 H       1  lig         0.1473
      3 H3          4.1502   24.5333    6.0856 H       1  lig         0.0559
      4 H4          5.0758   25.8757    6.7160 H       1  lig         0.0575
      5 H5          9.0685   23.3446    7.5123 H       1  lig         0.0688
      6 H6          8.9342   21.6142    7.8195 H       1  lig         0.0740
      7 H7          3.0346   24.1642    8.1431 H       1  lig         0.0477
      8 H8          3.0553   25.9137    7.9567 H       1  lig         0.0465
      9 H9          8.0796   23.0736    9.6892 H       1  lig         0.0495
     10 H10         6.8854   21.9151    9.1022 H       1  lig         0.0527
     11 H11         1.4791   25.8170    9.9698 H       1  lig         0.0459
     12 H12         2.5352   27.2331   10.1573 H       1  lig         0.0459
     13 H13         6.8220   24.8801   11.2150 H       1  lig         0.0438
     14 H14         6.5722   23.1577   11.2345 H       1  lig         0.0425
     15 H15         1.9518   27.4793   12.3259 H       1  lig         0.0681
     16 H16         0.7869   26.2117   12.2179 H       1  lig         0.0571
     17 H17         5.4971   24.3123   13.1634 H       1  lig         0.0423
     18 H18         4.4273   23.3293   12.2038 H       1  lig         0.0489
     19 H19         7.0477   24.8692    8.5774 H       1  lig         0.0634
     20 H20         4.9028   26.0852    9.4310 H       1  lig         0.0564
     21 H21         4.9288   23.2952    9.6097 H       1  lig         0.0555
     22 H22         3.0167   24.4080   10.6065 H       1  lig         0.0551
     23 H23         4.2117   27.6530   12.2275 H       1  lig         0.0433
     24 H24         5.4121   26.7876   13.1493 H       1  lig         0.0424
     25 H25         5.5963   26.9366   11.4058 H       1  lig         0.0357
     26 H26         3.5418   25.4702   14.6668 H       1  lig         0.4072
     27 C1          1.4688   23.1458   13.1665 C.1     1  lig        -0.1335
     28 C2          2.1336   24.2233   13.0036 C.1     1  lig        -0.1688
     29 C3          6.3269   23.1767    6.1350 C.2     1  lig        -0.2674
     30 C4          5.9090   23.9682    7.2580 C.2     1  lig        -0.0292
     31 C5          7.5504   22.3627    6.3623 C.2     1  lig         0.5673
     32 C6          4.6948   24.8827    6.9663 C.3     1  lig        -0.0559
     33 C7          8.3739   22.5136    7.6331 C.3     1  lig        -0.1823
     34 C8          3.6815   25.0412    8.1342 C.3     1  lig        -0.0728
     35 C9          7.4328   22.8266    8.8449 C.3     1  lig        -0.0705
     36 C10         2.2706   26.2643   10.5756 C.3     1  lig        -0.0740
     37 C11         6.0649   24.1042   11.0786 C.3     1  lig        -0.0723
     38 C12         1.8322   26.4330   12.0478 C.3     1  lig        -0.0690
     39 C13         4.9981   24.2588   12.1956 C.3     1  lig        -0.0643
     40 C14         6.4158   23.9768    8.5723 C.3     1  lig        -0.0353
     41 C15         4.3865   25.1268    9.5200 C.3     1  lig        -0.0466
     42 C16         5.4867   24.2372    9.6443 C.3     1  lig        -0.0538
     43 C17         3.5079   25.3854   10.6218 C.3     1  lig        -0.0659
     44 C18         2.7817   25.5630   12.8881 C.3     1  lig         0.2372
     45 C19         4.0467   25.4613   12.0427 C.3     1  lig        -0.0680
     46 C20         4.8662   26.7946   12.2037 C.3     1  lig        -0.0802
     47 O1          7.8775   21.6531    5.4739 O.2     1  lig        -0.5348
     48 O2          2.9284   26.0828   14.2136 O.3     1  lig        -0.5805
@<TRIPOS>BOND
     1    31    47    2
     2    31    33    1
     3    29    31    1
     4    33    35    1
     5     5    33    1
     6     6    33    1
     7    29    30    2
     8     2    29    1
     9    30    32    1
    10    30    40    1
    11    32    34    1
    12     3    32    1
    13     4    32    1
    14    35    40    1
    15    40    42    1
    16    19    40    1
    17     9    35    1
    18    10    35    1
    19    41    42    1
    20    37    42    1
    21    21    42    1
    22    34    41    1
    23    41    43    1
    24    20    41    1
    25     7    34    1
    26     8    34    1
    27    37    39    1
    28    13    37    1
    29    14    37    1
    30    39    45    1
    31    17    39    1
    32    18    39    1
    33    43    45    1
    34    45    46    1
    35    44    45    1
    36    36    43    1
    37    22    43    1
    38    23    46    1
    39    24    46    1
    40    25    46    1
    41    44    48    1
    42    38    44    1
    43    28    44    1
    44    26    48    1
    45    36    38    1
    46    15    38    1
    47    16    38    1
    48    11    36    1
    49    12    36    1
    50    27    28    3
    51     1    27    1
@<TRIPOS>SUBSTRUCTURE
     1 lig         1 TEMP              0 ****  ****    0 ROOT


########## Name:		ligand
########## HA_RMSDs:		16.0685
########## HA_RMSDh:		15.8047
########## HA_RMSDm:		10.5255
########## Cluster Size:	1
##########    Grid Score:           -8.820372
##########      Grid_vdw:           -8.928578
##########       Grid_es:            0.108207
##########    Int_energy:            3.010414

@<TRIPOS>MOLECULE
ligand
 48 51 1 0 0
SMALL
No Charge or Current Charge


@<TRIPOS>ATOM
      1 H1         18.0196   18.8677   37.2681 H       1  lig         0.1670
      2 H2         25.1226   14.5507   32.4781 H       1  lig         0.1473
      3 H3         23.1520   15.5943   31.7046 H       1  lig         0.0559
      4 H4         23.7809   17.1159   31.1169 H       1  lig         0.0575
      5 H5         27.4832   17.2860   34.1577 H       1  lig         0.0688
      6 H6         27.3520   16.4580   35.7082 H       1  lig         0.0740
      7 H7         21.4987   16.6415   33.0403 H       1  lig         0.0477
      8 H8         21.4849   17.5423   31.5289 H       1  lig         0.0465
      9 H9         25.9105   18.5159   35.5009 H       1  lig         0.0495
     10 H10        25.0033   17.0645   35.9292 H       1  lig         0.0527
     11 H11        19.3914   18.5944   32.5570 H       1  lig         0.0459
     12 H12        20.2718   19.8579   31.6715 H       1  lig         0.0459
     13 H13        24.1685   20.4106   34.7606 H       1  lig         0.0438
     14 H14        24.0118   19.3380   36.1223 H       1  lig         0.0425
     15 H15        19.0623   21.4963   32.6496 H       1  lig         0.0681
     16 H16        18.0470   20.3521   33.4469 H       1  lig         0.0571
     17 H17        22.3578   21.2013   36.1642 H       1  lig         0.0423
     18 H18        21.6704   19.6041   36.2527 H       1  lig         0.0489
     19 H19        25.1634   18.4600   33.2730 H       1  lig         0.0634
     20 H20        22.8033   19.2572   32.4969 H       1  lig         0.0564
     21 H21        22.9168   17.7462   34.8466 H       1  lig         0.0555
     22 H22        20.7417   18.6533   34.2682 H       1  lig         0.0551
     23 H23        21.2386   22.1273   32.7615 H       1  lig         0.0433
     24 H24        22.1554   22.6351   34.1548 H       1  lig         0.0424
     25 H25        22.8385   21.4476   33.0507 H       1  lig         0.0357
     26 H26        19.8444   22.9092   34.2597 H       1  lig         0.4072
     27 C1         18.5729   19.4377   36.5537 C.1     1  lig        -0.1335
     28 C2         19.2006   20.1298   35.6840 C.1     1  lig        -0.1688
     29 C3         25.2829   15.4084   33.1208 C.2     1  lig        -0.2674
     30 C4         24.5125   16.6195   33.0778 C.2     1  lig        -0.0292
     31 C5         26.4243   15.4250   34.0738 C.2     1  lig         0.5673
     32 C6         23.3938   16.6159   32.0080 C.3     1  lig        -0.0559
     33 C7         26.8270   16.6999   34.8008 C.3     1  lig        -0.1823
     34 C8         22.0741   17.3271   32.4185 C.3     1  lig        -0.0728
     35 C9         25.5554   17.5553   35.1223 C.3     1  lig        -0.0705
     36 C10        19.9450   19.5310   32.6564 C.3     1  lig        -0.0740
     37 C11        23.5258   19.6451   35.2019 C.3     1  lig        -0.0723
     38 C12        19.0833   20.6328   33.3133 C.3     1  lig        -0.0690
     39 C13        22.1703   20.3010   35.5787 C.3     1  lig        -0.0643
     40 C14        24.6073   17.7585   33.9011 C.3     1  lig        -0.0353
     41 C15        22.3331   18.6191   33.2484 C.3     1  lig        -0.0466
     42 C16        23.3911   18.4797   34.1856 C.3     1  lig        -0.0538
     43 C17        21.1563   19.3753   33.5585 C.3     1  lig        -0.0659
     44 C18        19.7851   21.0091   34.6287 C.3     1  lig         0.2372
     45 C19        21.2468   20.6438   34.3937 C.3     1  lig        -0.0680
     46 C20        21.9135   21.7750   33.5271 C.3     1  lig        -0.0802
     47 O1         27.0348   14.4166   34.1745 O.2     1  lig        -0.5348
     48 O2         19.5072   22.3636   34.9984 O.3     1  lig        -0.5805
@<TRIPOS>BOND
     1    31    47    2
     2    31    33    1
     3    29    31    1
     4    33    35    1
     5     5    33    1
     6     6    33    1
     7    29    30    2
     8     2    29    1
     9    30    32    1
    10    30    40    1
    11    32    34    1
    12     3    32    1
    13     4    32    1
    14    35    40    1
    15    40    42    1
    16    19    40    1
    17     9    35    1
    18    10    35    1
    19    41    42    1
    20    37    42    1
    21    21    42    1
    22    34    41    1
    23    41    43    1
    24    20    41    1
    25     7    34    1
    26     8    34    1
    27    37    39    1
    28    13    37    1
    29    14    37    1
    30    39    45    1
    31    17    39    1
    32    18    39    1
    33    43    45    1
    34    45    46    1
    35    44    45    1
    36    36    43    1
    37    22    43    1
    38    23    46    1
    39    24    46    1
    40    25    46    1
    41    44    48    1
    42    38    44    1
    43    28    44    1
    44    26    48    1
    45    36    38    1
    46    15    38    1
    47    16    38    1
    48    11    36    1
    49    12    36    1
    50    27    28    3
    51     1    27    1
@<TRIPOS>SUBSTRUCTURE
     1 lig         1 TEMP              0 ****  ****    0 ROOT


########## Name:		ligand
########## HA_RMSDs:		16.6236
########## HA_RMSDh:		16.4460
########## HA_RMSDm:		8.4080
########## Cluster Size:	2
##########    Grid Score:           -8.614040
##########      Grid_vdw:           -8.528557
##########       Grid_es:           -0.085484
##########    Int_energy:            3.236231

@<TRIPOS>MOLECULE
ligand
 48 51 1 0 0
SMALL
No Charge or Current Charge


@<TRIPOS>ATOM
      1 H1         16.1412   23.2428   30.3100 H       1  lig         0.1670
      2 H2         23.2180   24.6011   35.9320 H       1  lig         0.1473
      3 H3         20.9838   25.3428   36.1006 H       1  lig         0.0559
      4 H4         20.3575   24.2611   37.3228 H       1  lig         0.0575
      5 H5         23.3132   20.6332   36.2817 H       1  lig         0.0688
      6 H6         23.9523   20.4968   34.6447 H       1  lig         0.0740
      7 H7         19.2256   24.8635   34.5862 H       1  lig         0.0477
      8 H8         18.4360   25.0095   36.1519 H       1  lig         0.0465
      9 H9         21.4927   19.9826   34.8491 H       1  lig         0.0495
     10 H10        21.8493   21.2462   33.6705 H       1  lig         0.0527
     11 H11        16.3159   24.9178   34.7225 H       1  lig         0.0459
     12 H12        16.0121   24.0231   36.2268 H       1  lig         0.0459
     13 H13        18.8598   20.0063   35.3392 H       1  lig         0.0438
     14 H14        19.6220   20.1434   33.7805 H       1  lig         0.0425
     15 H15        14.1418   23.0798   35.3806 H       1  lig         0.0681
     16 H16        14.2564   24.0102   33.9326 H       1  lig         0.0571
     17 H17        17.1659   19.7526   33.6245 H       1  lig         0.0423
     18 H18        17.7418   21.1650   32.7849 H       1  lig         0.0489
     19 H19        20.7225   21.5305   36.4414 H       1  lig         0.0634
     20 H20        18.3672   22.6515   36.3778 H       1  lig         0.0564
     21 H21        19.7363   22.4497   33.9484 H       1  lig         0.0555
     22 H22        17.4662   23.2979   33.8238 H       1  lig         0.0551
     23 H23        15.3283   21.4183   36.3699 H       1  lig         0.0433
     24 H24        15.8230   19.8860   35.7014 H       1  lig         0.0424
     25 H25        16.9906   20.8706   36.5750 H       1  lig         0.0357
     26 H26        14.0599   20.7831   34.7293 H       1  lig         0.4072
     27 C1         15.8415   22.8617   31.2620 C.1     1  lig        -0.1335
     28 C2         15.5120   22.4267   32.4159 C.1     1  lig        -0.1688
     29 C3         22.8362   23.6131   35.7032 C.2     1  lig        -0.2674
     30 C4         21.4550   23.2291   35.7876 C.2     1  lig        -0.0292
     31 C5         23.7732   22.5112   35.3581 C.2     1  lig         0.5673
     32 C6         20.5123   24.3677   36.2465 C.3     1  lig        -0.0559
     33 C7         23.2994   21.0670   35.2820 C.3     1  lig        -0.1823
     34 C8         19.1160   24.3953   35.5642 C.3     1  lig        -0.0728
     35 C9         21.8314   21.0148   34.7395 C.3     1  lig        -0.0705
     36 C10        16.1061   23.9331   35.1467 C.3     1  lig        -0.0740
     37 C11        18.9526   20.6547   34.4648 C.3     1  lig        -0.0723
     38 C12        14.8128   23.3252   34.5585 C.3     1  lig        -0.0690
     39 C13        17.5631   20.7558   33.7801 C.3     1  lig        -0.0643
     40 C14        20.8576   21.9959   35.4611 C.3     1  lig        -0.0353
     41 C15        18.5373   22.9662   35.3457 C.3     1  lig        -0.0466
     42 C16        19.5158   22.0231   34.9329 C.3     1  lig        -0.0538
     43 C17        17.2040   22.9356   34.8222 C.3     1  lig        -0.0659
     44 C18        15.2289   22.0372   33.8289 C.3     1  lig         0.2372
     45 C19        16.5181   21.6109   34.5227 C.3     1  lig        -0.0680
     46 C20        16.1484   20.9123   35.8830 C.3     1  lig        -0.0802
     47 O1         24.9080   22.8155   35.2192 O.2     1  lig        -0.5348
     48 O2         14.1610   21.0845   33.8042 O.3     1  lig        -0.5805
@<TRIPOS>BOND
     1    31    47    2
     2    31    33    1
     3    29    31    1
     4    33    35    1
     5     5    33    1
     6     6    33    1
     7    29    30    2
     8     2    29    1
     9    30    32    1
    10    30    40    1
    11    32    34    1
    12     3    32    1
    13     4    32    1
    14    35    40    1
    15    40    42    1
    16    19    40    1
    17     9    35    1
    18    10    35    1
    19    41    42    1
    20    37    42    1
    21    21    42    1
    22    34    41    1
    23    41    43    1
    24    20    41    1
    25     7    34    1
    26     8    34    1
    27    37    39    1
    28    13    37    1
    29    14    37    1
    30    39    45    1
    31    17    39    1
    32    18    39    1
    33    43    45    1
    34    45    46    1
    35    44    45    1
    36    36    43    1
    37    22    43    1
    38    23    46    1
    39    24    46    1
    40    25    46    1
    41    44    48    1
    42    38    44    1
    43    28    44    1
    44    26    48    1
    45    36    38    1
    46    15    38    1
    47    16    38    1
    48    11    36    1
    49    12    36    1
    50    27    28    3
    51     1    27    1
@<TRIPOS>SUBSTRUCTURE
     1 lig         1 TEMP              0 ****  ****    0 ROOT


########## Name:		ligand
########## HA_RMSDs:		16.8670
########## HA_RMSDh:		16.7297
########## HA_RMSDm:		11.1910
########## Cluster Size:	1
##########    Grid Score:           -8.556305
##########      Grid_vdw:           -8.579914
##########       Grid_es:            0.023609
##########    Int_energy:            3.233621

@<TRIPOS>MOLECULE
ligand
 48 51 1 0 0
SMALL
No Charge or Current Charge


@<TRIPOS>ATOM
      1 H1         16.0384   17.6460   35.2860 H       1  lig         0.1670
      2 H2         14.8229   26.5610   36.9062 H       1  lig         0.1473
      3 H3         16.4379   25.0696   37.7650 H       1  lig         0.0559
      4 H4         17.8531   25.5374   36.8515 H       1  lig         0.0575
      5 H5         15.4326   27.0474   32.9988 H       1  lig         0.0688
      6 H6         13.8510   26.3483   32.6575 H       1  lig         0.0740
      7 H7         16.6724   22.7785   37.2081 H       1  lig         0.0477
      8 H8         18.3094   23.3203   37.5584 H       1  lig         0.0465
      9 H9         15.7870   24.7774   32.2834 H       1  lig         0.0495
     10 H10        14.5730   24.1420   33.3949 H       1  lig         0.0527
     11 H11        18.8168   20.8168   37.4123 H       1  lig         0.0459
     12 H12        20.1811   21.7037   36.6999 H       1  lig         0.0459
     13 H13        17.9867   23.2627   32.4824 H       1  lig         0.0438
     14 H14        16.3430   22.6940   32.4154 H       1  lig         0.0425
     15 H15        21.0128   19.8256   35.7592 H       1  lig         0.0681
     16 H16        19.8175   18.8432   36.5221 H       1  lig         0.0571
     17 H17        18.0111   20.8656   32.1250 H       1  lig         0.0423
     18 H18        16.8631   20.6181   33.4105 H       1  lig         0.0489
     19 H19        17.2762   25.2910   34.0279 H       1  lig         0.0634
     20 H20        18.7729   23.5336   35.2441 H       1  lig         0.0564
     21 H21        16.1285   22.7933   34.7185 H       1  lig         0.0555
     22 H22        17.5521   21.0648   35.6533 H       1  lig         0.0551
     23 H23        21.0479   21.4346   34.1603 H       1  lig         0.0433
     24 H24        20.3978   21.3783   32.5436 H       1  lig         0.0424
     25 H25        20.0771   22.7776   33.5609 H       1  lig         0.0357
     26 H26        19.6127   18.7574   32.7688 H       1  lig         0.4072
     27 C1         16.9562   18.1248   35.0220 C.1     1  lig        -0.1335
     28 C2         18.0422   18.7275   34.7277 C.1     1  lig        -0.1688
     29 C3         15.0402   26.1724   35.9182 C.2     1  lig        -0.2674
     30 C4         16.1164   25.2730   35.6103 C.2     1  lig        -0.0292
     31 C5         14.2571   26.6384   34.7431 C.2     1  lig         0.5673
     32 C6         16.9792   24.8818   36.8344 C.3     1  lig        -0.0559
     33 C7         14.6957   26.3126   33.3227 C.3     1  lig        -0.1823
     34 C8         17.4850   23.4122   36.8535 C.3     1  lig        -0.0728
     35 C9         15.3586   24.8946   33.2809 C.3     1  lig        -0.0705
     36 C10        19.3689   21.0110   36.4898 C.3     1  lig        -0.0740
     37 C11        17.2388   22.6823   33.0280 C.3     1  lig        -0.0723
     38 C12        19.9370   19.7082   35.8832 C.3     1  lig        -0.0690
     39 C13        17.7301   21.2127   33.1195 C.3     1  lig        -0.0643
     40 C14        16.4443   24.6738   34.3783 C.3     1  lig        -0.0353
     41 C15        17.8965   22.9110   35.4377 C.3     1  lig        -0.0466
     42 C16        17.0194   23.3516   34.4111 C.3     1  lig        -0.0538
     43 C17        18.4753   21.6006   35.4131 C.3     1  lig        -0.0659
     44 C18        19.2731   19.5425   34.5061 C.3     1  lig         0.2372
     45 C19        18.8944   20.9619   34.0973 C.3     1  lig        -0.0680
     46 C20        20.1832   21.6920   33.5672 C.3     1  lig        -0.0802
     47 O1         13.3253   27.3288   34.9774 O.2     1  lig        -0.5348
     48 O2         20.1138   18.8120   33.6072 O.3     1  lig        -0.5805
@<TRIPOS>BOND
     1    31    47    2
     2    31    33    1
     3    29    31    1
     4    33    35    1
     5     5    33    1
     6     6    33    1
     7    29    30    2
     8     2    29    1
     9    30    32    1
    10    30    40    1
    11    32    34    1
    12     3    32    1
    13     4    32    1
    14    35    40    1
    15    40    42    1
    16    19    40    1
    17     9    35    1
    18    10    35    1
    19    41    42    1
    20    37    42    1
    21    21    42    1
    22    34    41    1
    23    41    43    1
    24    20    41    1
    25     7    34    1
    26     8    34    1
    27    37    39    1
    28    13    37    1
    29    14    37    1
    30    39    45    1
    31    17    39    1
    32    18    39    1
    33    43    45    1
    34    45    46    1
    35    44    45    1
    36    36    43    1
    37    22    43    1
    38    23    46    1
    39    24    46    1
    40    25    46    1
    41    44    48    1
    42    38    44    1
    43    28    44    1
    44    26    48    1
    45    36    38    1
    46    15    38    1
    47    16    38    1
    48    11    36    1
    49    12    36    1
    50    27    28    3
    51     1    27    1
@<TRIPOS>SUBSTRUCTURE
     1 lig         1 TEMP              0 ****  ****    0 ROOT


########## Name:		ligand
########## HA_RMSDs:		18.4400
########## HA_RMSDh:		18.4400
########## HA_RMSDm:		14.8090
########## Cluster Size:	2
##########    Grid Score:           -8.094385
##########      Grid_vdw:           -7.692158
##########       Grid_es:           -0.402227
##########    Int_energy:            3.181641

@<TRIPOS>MOLECULE
ligand
 48 51 1 0 0
SMALL
No Charge or Current Charge


@<TRIPOS>ATOM
      1 H1         31.4237   18.4512   31.3467 H       1  lig         0.1670
      2 H2         37.7833   13.5128   26.4332 H       1  lig         0.1473
      3 H3         37.4723   13.5740   28.7719 H       1  lig         0.0559
      4 H4         36.6048   12.0799   29.0391 H       1  lig         0.0575
      5 H5         34.5332   11.9744   24.7171 H       1  lig         0.0688
      6 H6         34.2531   13.4936   23.8684 H       1  lig         0.0740
      7 H7         35.8703   14.8684   29.9435 H       1  lig         0.0477
      8 H8         36.0724   13.4199   30.9217 H       1  lig         0.0465
      9 H9         32.7796   13.1388   25.8830 H       1  lig         0.0495
     10 H10        33.6948   14.6461   25.9404 H       1  lig         0.0527
     11 H11        34.6641   14.7505   32.5929 H       1  lig         0.0459
     12 H12        34.1763   13.0449   32.6875 H       1  lig         0.0459
     13 H13        31.7666   12.6748   28.3184 H       1  lig         0.0438
     14 H14        31.7960   14.2027   27.4854 H       1  lig         0.0425
     15 H15        32.3109   13.5616   33.8525 H       1  lig         0.0681
     16 H16        32.7608   15.2241   33.9500 H       1  lig         0.0571
     17 H17        30.3310   14.2287   29.5010 H       1  lig         0.0423
     18 H18        31.5630   15.4586   29.4699 H       1  lig         0.0489
     19 H19        34.1945   12.0908   27.4400 H       1  lig         0.0634
     20 H20        34.0903   12.4882   30.0167 H       1  lig         0.0564
     21 H21        33.8616   14.7436   28.3803 H       1  lig         0.0555
     22 H22        33.5456   15.1164   30.7572 H       1  lig         0.0551
     23 H23        31.6883   12.1162   32.2184 H       1  lig         0.0433
     24 H24        30.4167   12.2884   31.0381 H       1  lig         0.0424
     25 H25        32.0134   11.7571   30.5241 H       1  lig         0.0357
     26 H26        30.1095   15.0417   33.5625 H       1  lig         0.4072
     27 C1         31.4978   17.4237   31.6298 C.1     1  lig        -0.1335
     28 C2         31.5512   16.1899   31.9529 C.1     1  lig        -0.1688
     29 C3         36.7080   13.4301   26.3273 C.2     1  lig        -0.2674
     30 C4         35.7910   13.2309   27.4143 C.2     1  lig        -0.0292
     31 C5         36.0884   13.4256   24.9756 C.2     1  lig         0.5673
     32 C6         36.4706   13.1381   28.8018 C.3     1  lig        -0.0559
     33 C7         34.6245   13.0586   24.7796 C.3     1  lig        -0.1823
     34 C8         35.6890   13.7942   29.9742 C.3     1  lig        -0.0728
     35 C9         33.7811   13.5572   26.0011 C.3     1  lig        -0.0705
     36 C10        33.8462   14.0468   32.4212 C.3     1  lig        -0.0740
     37 C11        32.1226   13.7051   28.3928 C.3     1  lig        -0.0723
     38 C12        32.5934   14.4205   33.2451 C.3     1  lig        -0.0690
     39 C13        31.4062   14.3859   29.5898 C.3     1  lig        -0.0643
     40 C14        34.3842   13.1663   27.3850 C.3     1  lig        -0.0353
     41 C15        34.1527   13.5673   29.8596 C.3     1  lig        -0.0466
     42 C16        33.6685   13.6757   28.5288 C.3     1  lig        -0.0538
     43 C17        33.3926   14.0547   30.9721 C.3     1  lig        -0.0659
     44 C18        31.4789   14.7250   32.2304 C.3     1  lig         0.2372
     45 C19        31.8758   13.9365   30.9870 C.3     1  lig        -0.0680
     46 C20        31.4868   12.4277   31.2044 C.3     1  lig        -0.0802
     47 O1         36.8133   13.6522   24.0684 O.2     1  lig        -0.5348
     48 O2         30.1854   14.4574   32.7816 O.3     1  lig        -0.5805
@<TRIPOS>BOND
     1    31    47    2
     2    31    33    1
     3    29    31    1
     4    33    35    1
     5     5    33    1
     6     6    33    1
     7    29    30    2
     8     2    29    1
     9    30    32    1
    10    30    40    1
    11    32    34    1
    12     3    32    1
    13     4    32    1
    14    35    40    1
    15    40    42    1
    16    19    40    1
    17     9    35    1
    18    10    35    1
    19    41    42    1
    20    37    42    1
    21    21    42    1
    22    34    41    1
    23    41    43    1
    24    20    41    1
    25     7    34    1
    26     8    34    1
    27    37    39    1
    28    13    37    1
    29    14    37    1
    30    39    45    1
    31    17    39    1
    32    18    39    1
    33    43    45    1
    34    45    46    1
    35    44    45    1
    36    36    43    1
    37    22    43    1
    38    23    46    1
    39    24    46    1
    40    25    46    1
    41    44    48    1
    42    38    44    1
    43    28    44    1
    44    26    48    1
    45    36    38    1
    46    15    38    1
    47    16    38    1
    48    11    36    1
    49    12    36    1
    50    27    28    3
    51     1    27    1
@<TRIPOS>SUBSTRUCTURE
     1 lig         1 TEMP              0 ****  ****    0 ROOT


########## Name:		ligand
########## HA_RMSDs:		18.2761
########## HA_RMSDh:		18.2632
########## HA_RMSDm:		14.9335
########## Cluster Size:	1
##########    Grid Score:           -8.067392
##########      Grid_vdw:           -7.428135
##########       Grid_es:           -0.639257
##########    Int_energy:            3.016892

@<TRIPOS>MOLECULE
ligand
 48 51 1 0 0
SMALL
No Charge or Current Charge


@<TRIPOS>ATOM
      1 H1          5.5754   30.7424   14.0521 H       1  lig         0.1670
      2 H2          4.4142   21.3667   12.5357 H       1  lig         0.1473
      3 H3          5.3756   22.5321   14.3490 H       1  lig         0.0559
      4 H4          4.1018   22.4175   15.5409 H       1  lig         0.0575
      5 H5          0.5200   22.1915   12.3626 H       1  lig         0.0688
      6 H6          0.7391   22.9293   10.7769 H       1  lig         0.0740
      7 H7          5.5544   24.8842   14.5721 H       1  lig         0.0477
      8 H8          5.3835   24.2933   16.2207 H       1  lig         0.0465
      9 H9          0.5218   24.5779   12.6719 H       1  lig         0.0495
     10 H10         1.9937   24.7907   11.7227 H       1  lig         0.0527
     11 H11         5.9581   26.7184   16.7994 H       1  lig         0.0459
     12 H12         4.7450   26.1412   17.9617 H       1  lig         0.0459
     13 H13         0.7654   25.9925   14.9329 H       1  lig         0.0438
     14 H14         1.2086   26.5164   13.3334 H       1  lig         0.0425
     15 H15         4.3183   28.2407   18.6787 H       1  lig         0.0681
     16 H16         5.5759   28.8953   17.6960 H       1  lig         0.0571
     17 H17         1.2043   28.3753   14.9930 H       1  lig         0.0423
     18 H18         2.6990   28.1663   14.1249 H       1  lig         0.0489
     19 H19         1.6798   23.5568   14.4443 H       1  lig         0.0634
     20 H20         3.0811   24.8547   16.2218 H       1  lig         0.0564
     21 H21         3.3509   25.6685   13.5606 H       1  lig         0.0555
     22 H22         4.4966   27.0291   15.2112 H       1  lig         0.0551
     23 H23         2.3110   27.2406   18.3361 H       1  lig         0.0433
     24 H24         0.9594   27.8059   17.3910 H       1  lig         0.0424
     25 H25         1.5119   26.1451   17.2106 H       1  lig         0.0357
     26 H26         2.2470   30.2738   16.7483 H       1  lig         0.4072
     27 C1          4.9827   30.1944   14.7520 C.1     1  lig        -0.1335
     28 C2          4.2990   29.5503   15.6163 C.1     1  lig        -0.1688
     29 C3          3.5825   22.0603   12.5761 C.2     1  lig        -0.2674
     30 C4          3.3776   23.0340   13.6116 C.2     1  lig        -0.0292
     31 C5          2.4971   21.9853   11.5625 C.2     1  lig         0.5673
     32 C6          4.4687   23.0240   14.7094 C.3     1  lig        -0.0559
     33 C7          1.2014   22.7649   11.7344 C.3     1  lig        -0.1823
     34 C8          4.8624   24.4180   15.2732 C.3     1  lig        -0.0728
     35 C9          1.4913   24.1333   12.4382 C.3     1  lig        -0.0705
     36 C10         4.9332   26.8469   17.1553 C.3     1  lig        -0.0740
     37 C11         1.6043   26.3475   14.3297 C.3     1  lig        -0.0723
     38 C12         4.6814   28.2881   17.6528 C.3     1  lig        -0.0690
     39 C13         2.0679   27.7175   14.8931 C.3     1  lig        -0.0643
     40 C14         2.3664   24.0083   13.7228 C.3     1  lig        -0.0353
     41 C15         3.6330   25.3613   15.4269 C.3     1  lig        -0.0466
     42 C16         2.7116   25.2600   14.3508 C.3     1  lig        -0.0538
     43 C17         3.9205   26.6206   16.0468 C.3     1  lig        -0.0659
     44 C18         3.5898   28.8785   16.7450 C.3     1  lig         0.2372
     45 C19         2.8266   27.6615   16.2332 C.3     1  lig        -0.0680
     46 C20         1.8477   27.1717   17.3632 C.3     1  lig        -0.0802
     47 O1          2.6731   21.2362   10.6638 O.2     1  lig        -0.5348
     48 O2          2.8291   29.8797   17.4286 O.3     1  lig        -0.5805
@<TRIPOS>BOND
     1    31    47    2
     2    31    33    1
     3    29    31    1
     4    33    35    1
     5     5    33    1
     6     6    33    1
     7    29    30    2
     8     2    29    1
     9    30    32    1
    10    30    40    1
    11    32    34    1
    12     3    32    1
    13     4    32    1
    14    35    40    1
    15    40    42    1
    16    19    40    1
    17     9    35    1
    18    10    35    1
    19    41    42    1
    20    37    42    1
    21    21    42    1
    22    34    41    1
    23    41    43    1
    24    20    41    1
    25     7    34    1
    26     8    34    1
    27    37    39    1
    28    13    37    1
    29    14    37    1
    30    39    45    1
    31    17    39    1
    32    18    39    1
    33    43    45    1
    34    45    46    1
    35    44    45    1
    36    36    43    1
    37    22    43    1
    38    23    46    1
    39    24    46    1
    40    25    46    1
    41    44    48    1
    42    38    44    1
    43    28    44    1
    44    26    48    1
    45    36    38    1
    46    15    38    1
    47    16    38    1
    48    11    36    1
    49    12    36    1
    50    27    28    3
    51     1    27    1
@<TRIPOS>SUBSTRUCTURE
     1 lig         1 TEMP              0 ****  ****    0 ROOT


########## Name:		ligand
########## HA_RMSDs:		16.6709
########## HA_RMSDh:		16.4050
########## HA_RMSDm:		10.5823
########## Cluster Size:	1
##########    Grid Score:           -7.871291
##########      Grid_vdw:           -6.820538
##########       Grid_es:           -1.050753
##########    Int_energy:            3.005191

@<TRIPOS>MOLECULE
ligand
 48 51 1 0 0
SMALL
No Charge or Current Charge


@<TRIPOS>ATOM
      1 H1         22.0511   25.1011   34.4112 H       1  lig         0.1670
      2 H2         14.7853   19.0807   32.3997 H       1  lig         0.1473
      3 H3         17.0722   18.9528   31.8308 H       1  lig         0.0559
      4 H4         17.6454   17.7744   32.9880 H       1  lig         0.0575
      5 H5         14.4015   18.8263   36.3574 H       1  lig         0.0688
      6 H6         13.7143   20.4488   36.4026 H       1  lig         0.0740
      7 H7         18.7521   20.5242   32.3992 H       1  lig         0.0477
      8 H8         19.5884   18.9767   32.3537 H       1  lig         0.0465
      9 H9         16.1327   20.3219   37.1034 H       1  lig         0.0495
     10 H10        15.8432   21.4592   35.7860 H       1  lig         0.0527
     11 H11        21.6602   20.4631   32.5649 H       1  lig         0.0459
     12 H12        21.9327   18.9897   33.5191 H       1  lig         0.0459
     13 H13        18.7711   19.9007   37.2883 H       1  lig         0.0438
     14 H14        17.9836   21.4350   37.0537 H       1  lig         0.0425
     15 H15        23.7058   19.9078   34.5760 H       1  lig         0.0681
     16 H16        23.6260   21.3290   33.6017 H       1  lig         0.0571
     17 H17        20.3989   21.6650   37.6217 H       1  lig         0.0423
     18 H18        19.9102   22.4543   36.1487 H       1  lig         0.0489
     19 H19        17.0553   18.7128   35.6596 H       1  lig         0.0634
     20 H20        19.4857   18.8107   34.7155 H       1  lig         0.0564
     21 H21        18.0466   21.2075   34.7506 H       1  lig         0.0555
     22 H22        20.3702   21.3709   34.0704 H       1  lig         0.0551
     23 H23        22.4226   18.9288   36.1704 H       1  lig         0.0433
     24 H24        21.7983   19.6215   37.6434 H       1  lig         0.0424
     25 H25        20.7294   18.6936   36.5983 H       1  lig         0.0357
     26 H26        23.0749   22.0189   37.2568 H       1  lig         0.4072
     27 C1         22.1099   24.0742   34.6999 C.1     1  lig        -0.1335
     28 C2         22.2186   22.8506   35.0469 C.1     1  lig        -0.1688
     29 C3         15.0863   19.3437   33.4069 C.2     1  lig        -0.2674
     30 C4         16.4365   19.3052   33.8946 C.2     1  lig        -0.0292
     31 C5         14.0612   19.6910   34.4266 C.2     1  lig         0.5673
     32 C6         17.4728   18.8433   32.8417 C.3     1  lig        -0.0559
     33 C7         14.4234   19.8151   35.8995 C.3     1  lig        -0.1823
     34 C8         18.8502   19.5612   32.8999 C.3     1  lig        -0.0728
     35 C9         15.8697   20.3971   36.0463 C.3     1  lig        -0.0705
     36 C10        21.8058   20.0689   33.5733 C.3     1  lig        -0.0740
     37 C11        18.7059   20.7562   36.6119 C.3     1  lig        -0.0723
     38 C12        23.0352   20.7057   34.2598 C.3     1  lig        -0.0690
     39 C13        20.0819   21.4744   36.5962 C.3     1  lig        -0.0643
     40 C14        16.9316   19.6774   35.1597 C.3     1  lig        -0.0353
     41 C15        19.3146   19.8299   34.3618 C.3     1  lig        -0.0466
     42 C16        18.2584   20.2399   35.2183 C.3     1  lig        -0.0538
     43 C17        20.6287   20.3889   34.4775 C.3     1  lig        -0.0659
     44 C18        22.5062   21.4555   35.4936 C.3     1  lig         0.2372
     45 C19        21.2059   20.7388   35.8411 C.3     1  lig        -0.0680
     46 C20        21.5552   19.4063   36.6010 C.3     1  lig        -0.0802
     47 O1         12.9493   19.7925   34.0353 O.2     1  lig        -0.5348
     48 O2         23.4987   21.5317   36.5220 O.3     1  lig        -0.5805
@<TRIPOS>BOND
     1    31    47    2
     2    31    33    1
     3    29    31    1
     4    33    35    1
     5     5    33    1
     6     6    33    1
     7    29    30    2
     8     2    29    1
     9    30    32    1
    10    30    40    1
    11    32    34    1
    12     3    32    1
    13     4    32    1
    14    35    40    1
    15    40    42    1
    16    19    40    1
    17     9    35    1
    18    10    35    1
    19    41    42    1
    20    37    42    1
    21    21    42    1
    22    34    41    1
    23    41    43    1
    24    20    41    1
    25     7    34    1
    26     8    34    1
    27    37    39    1
    28    13    37    1
    29    14    37    1
    30    39    45    1
    31    17    39    1
    32    18    39    1
    33    43    45    1
    34    45    46    1
    35    44    45    1
    36    36    43    1
    37    22    43    1
    38    23    46    1
    39    24    46    1
    40    25    46    1
    41    44    48    1
    42    38    44    1
    43    28    44    1
    44    26    48    1
    45    36    38    1
    46    15    38    1
    47    16    38    1
    48    11    36    1
    49    12    36    1
    50    27    28    3
    51     1    27    1
@<TRIPOS>SUBSTRUCTURE
     1 lig         1 TEMP              0 ****  ****    0 ROOT


########## Name:		ligand
########## HA_RMSDs:		15.9091
########## HA_RMSDh:		15.8460
########## HA_RMSDm:		10.6317
########## Cluster Size:	2
##########    Grid Score:           -7.633493
##########      Grid_vdw:           -7.824361
##########       Grid_es:            0.190867
##########    Int_energy:            3.188653

@<TRIPOS>MOLECULE
ligand
 48 51 1 0 0
SMALL
No Charge or Current Charge


@<TRIPOS>ATOM
      1 H1         15.6966   27.8482   32.1425 H       1  lig         0.1670
      2 H2         17.8660   18.7472   31.0274 H       1  lig         0.1473
      3 H3         19.2084   20.4677   31.9263 H       1  lig         0.0559
      4 H4         19.0536   20.1600   33.6402 H       1  lig         0.0575
      5 H5         14.6822   18.2116   33.3624 H       1  lig         0.0688
      6 H6         13.6210   18.6833   32.0364 H       1  lig         0.0740
      7 H7         18.6079   22.7492   32.1468 H       1  lig         0.0477
      8 H8         19.6872   22.4409   33.5019 H       1  lig         0.0465
      9 H9         13.9944   20.4826   33.7624 H       1  lig         0.0495
     10 H10        14.3995   20.9898   32.1218 H       1  lig         0.0527
     11 H11        19.5548   24.9830   33.7598 H       1  lig         0.0459
     12 H12        19.5950   24.2603   35.3821 H       1  lig         0.0459
     13 H13        15.0009   22.2808   35.4730 H       1  lig         0.0438
     14 H14        14.1697   22.6246   33.9829 H       1  lig         0.0425
     15 H15        18.9501   26.1984   36.3472 H       1  lig         0.0681
     16 H16        19.0205   27.0398   34.8430 H       1  lig         0.0571
     17 H17        14.4773   24.6463   35.4068 H       1  lig         0.0423
     18 H18        15.1016   24.7839   33.7873 H       1  lig         0.0489
     19 H19        16.2533   20.2307   34.3612 H       1  lig         0.0634
     20 H20        17.8397   22.2113   34.9681 H       1  lig         0.0564
     21 H21        16.1443   22.5770   32.7752 H       1  lig         0.0555
     22 H22        17.4495   24.5097   33.4456 H       1  lig         0.0551
     23 H23        17.6796   24.5541   37.2576 H       1  lig         0.0433
     24 H24        15.9437   24.4683   37.3950 H       1  lig         0.0424
     25 H25        16.8382   23.0747   36.8004 H       1  lig         0.0357
     26 H26        16.8811   26.5939   37.2207 H       1  lig         0.4072
     27 C1         16.1364   27.3964   33.0050 C.1     1  lig        -0.1335
     28 C2         16.6273   26.8580   34.0531 C.1     1  lig        -0.1688
     29 C3         17.0427   19.1269   31.6211 C.2     1  lig        -0.2674
     30 C4         17.1586   20.1497   32.6225 C.2     1  lig        -0.0292
     31 C5         15.6903   18.5214   31.4971 C.2     1  lig         0.5673
     32 C6         18.5965   20.6933   32.8032 C.3     1  lig        -0.0559
     33 C7         14.5831   18.8533   32.4870 C.3     1  lig        -0.1823
     34 C8         18.7037   22.2166   33.0928 C.3     1  lig        -0.0728
     35 C9         14.7093   20.3442   32.9487 C.3     1  lig        -0.0705
     36 C10        18.9892   24.8319   34.6822 C.3     1  lig        -0.0740
     37 C11        15.1091   22.7756   34.5049 C.3     1  lig        -0.0723
     38 C12        18.5790   26.1767   35.3234 C.3     1  lig        -0.0690
     39 C13        15.2747   24.2996   34.7492 C.3     1  lig        -0.0643
     40 C14        16.1468   20.7442   33.4017 C.3     1  lig        -0.0353
     41 C15        17.5730   22.7188   34.0384 C.3     1  lig        -0.0466
     42 C16        16.3099   22.1312   33.7620 C.3     1  lig        -0.0538
     43 C17        17.6873   24.0926   34.4287 C.3     1  lig        -0.0659
     44 C18        17.0416   26.2057   35.3303 C.3     1  lig         0.2372
     45 C19        16.6370   24.7355   35.3224 C.3     1  lig        -0.0680
     46 C20        16.7932   24.1644   36.7799 C.3     1  lig        -0.0802
     47 O1         15.5533   17.7223   30.6354 O.2     1  lig        -0.5348
     48 O2         16.5406   27.0096   36.4033 O.3     1  lig        -0.5805
@<TRIPOS>BOND
     1    31    47    2
     2    31    33    1
     3    29    31    1
     4    33    35    1
     5     5    33    1
     6     6    33    1
     7    29    30    2
     8     2    29    1
     9    30    32    1
    10    30    40    1
    11    32    34    1
    12     3    32    1
    13     4    32    1
    14    35    40    1
    15    40    42    1
    16    19    40    1
    17     9    35    1
    18    10    35    1
    19    41    42    1
    20    37    42    1
    21    21    42    1
    22    34    41    1
    23    41    43    1
    24    20    41    1
    25     7    34    1
    26     8    34    1
    27    37    39    1
    28    13    37    1
    29    14    37    1
    30    39    45    1
    31    17    39    1
    32    18    39    1
    33    43    45    1
    34    45    46    1
    35    44    45    1
    36    36    43    1
    37    22    43    1
    38    23    46    1
    39    24    46    1
    40    25    46    1
    41    44    48    1
    42    38    44    1
    43    28    44    1
    44    26    48    1
    45    36    38    1
    46    15    38    1
    47    16    38    1
    48    11    36    1
    49    12    36    1
    50    27    28    3
    51     1    27    1
@<TRIPOS>SUBSTRUCTURE
     1 lig         1 TEMP              0 ****  ****    0 ROOT


########## Name:		ligand
########## HA_RMSDs:		18.0784
########## HA_RMSDh:		18.0784
########## HA_RMSDm:		14.6732
########## Cluster Size:	2
##########    Grid Score:           -7.279003
##########      Grid_vdw:           -8.003036
##########       Grid_es:            0.724033
##########    Int_energy:            3.290612

@<TRIPOS>MOLECULE
ligand
 48 51 1 0 0
SMALL
No Charge or Current Charge


@<TRIPOS>ATOM
      1 H1          9.1411   22.7661   10.6940 H       1  lig         0.1670
      2 H2         11.4207   23.6165    1.9203 H       1  lig         0.1473
      3 H3         10.6095   21.7267    3.0782 H       1  lig         0.0559
      4 H4          8.9479   21.6832    2.5368 H       1  lig         0.0575
      5 H5          8.5792   26.4075    1.8104 H       1  lig         0.0688
      6 H6          9.6022   27.4964    2.7455 H       1  lig         0.0740
      7 H7         10.0052   21.6333    5.3674 H       1  lig         0.0477
      8 H8          8.9383   20.4776    4.5788 H       1  lig         0.0465
      9 H9          7.7843   26.3709    4.0813 H       1  lig         0.0495
     10 H10         9.4008   26.1106    4.7386 H       1  lig         0.0527
     11 H11         8.3598   19.8628    6.9941 H       1  lig         0.0459
     12 H12         6.8753   19.7632    6.0236 H       1  lig         0.0459
     13 H13         6.1073   24.6481    5.2612 H       1  lig         0.0438
     14 H14         7.3508   25.5805    6.0446 H       1  lig         0.0425
     15 H15         5.5784   19.6869    7.8719 H       1  lig         0.0681
     16 H16         6.9561   19.6301    8.9084 H       1  lig         0.0571
     17 H17         5.7873   24.5047    7.6594 H       1  lig         0.0423
     18 H18         7.4707   24.1347    7.9060 H       1  lig         0.0489
     19 H19         7.6809   24.2027    3.1796 H       1  lig         0.0634
     20 H20         7.1715   22.0570    4.5739 H       1  lig         0.0564
     21 H21         8.9242   23.9154    5.7103 H       1  lig         0.0555
     22 H22         8.3027   22.0392    7.1181 H       1  lig         0.0551
     23 H23         4.6348   21.1974    6.4666 H       1  lig         0.0433
     24 H24         4.1660   22.8446    6.7932 H       1  lig         0.0424
     25 H25         5.0875   22.4751    5.3405 H       1  lig         0.0357
     26 H26         4.2703   21.3990    8.6177 H       1  lig         0.4072
     27 C1          8.2805   22.4466   10.1473 C.1     1  lig        -0.1335
     28 C2          7.2699   22.0756    9.4615 C.1     1  lig        -0.1688
     29 C3         10.6344   24.1973    2.3879 C.2     1  lig        -0.2674
     30 C4          9.5621   23.6457    3.1677 C.2     1  lig        -0.0292
     31 C5         10.5577   25.6658    2.1669 C.2     1  lig         0.5673
     32 C6          9.6080   22.1041    3.2990 C.3     1  lig        -0.0559
     33 C7          9.3351   26.4654    2.5934 C.3     1  lig        -0.1823
     34 C8          9.1671   21.5372    4.6775 C.3     1  lig        -0.0728
     35 C9          8.7344   25.8618    3.9075 C.3     1  lig        -0.0705
     36 C10         7.3679   20.2927    6.8364 C.3     1  lig        -0.0740
     37 C11         7.0121   24.5648    5.8681 C.3     1  lig        -0.0723
     38 C12         6.5031   20.2089    8.1144 C.3     1  lig        -0.0690
     39 C13         6.6267   23.9496    7.2402 C.3     1  lig        -0.0643
     40 C14         8.5324   24.3164    3.8562 C.3     1  lig        -0.0353
     41 C15         7.9627   22.3194    5.2797 C.3     1  lig        -0.0466
     42 C16         8.0500   23.7227    5.0790 C.3     1  lig        -0.0538
     43 C17         7.4430   21.7707    6.4969 C.3     1  lig        -0.0659
     44 C18         6.1871   21.6573    8.5229 C.3     1  lig         0.2372
     45 C19         6.2886   22.4463    7.2220 C.3     1  lig        -0.0680
     46 C20         4.9693   22.2215    6.3949 C.3     1  lig        -0.0802
     47 O1         11.4634   26.1536    1.5825 O.2     1  lig        -0.5348
     48 O2          4.9484   21.7391    9.2352 O.3     1  lig        -0.5805
@<TRIPOS>BOND
     1    31    47    2
     2    31    33    1
     3    29    31    1
     4    33    35    1
     5     5    33    1
     6     6    33    1
     7    29    30    2
     8     2    29    1
     9    30    32    1
    10    30    40    1
    11    32    34    1
    12     3    32    1
    13     4    32    1
    14    35    40    1
    15    40    42    1
    16    19    40    1
    17     9    35    1
    18    10    35    1
    19    41    42    1
    20    37    42    1
    21    21    42    1
    22    34    41    1
    23    41    43    1
    24    20    41    1
    25     7    34    1
    26     8    34    1
    27    37    39    1
    28    13    37    1
    29    14    37    1
    30    39    45    1
    31    17    39    1
    32    18    39    1
    33    43    45    1
    34    45    46    1
    35    44    45    1
    36    36    43    1
    37    22    43    1
    38    23    46    1
    39    24    46    1
    40    25    46    1
    41    44    48    1
    42    38    44    1
    43    28    44    1
    44    26    48    1
    45    36    38    1
    46    15    38    1
    47    16    38    1
    48    11    36    1
    49    12    36    1
    50    27    28    3
    51     1    27    1
@<TRIPOS>SUBSTRUCTURE
     1 lig         1 TEMP              0 ****  ****    0 ROOT


########## Name:		ligand
########## HA_RMSDs:		20.0888
########## HA_RMSDh:		19.9537
########## HA_RMSDm:		15.9646
########## Cluster Size:	1
##########    Grid Score:           -7.230174
##########      Grid_vdw:           -7.262396
##########       Grid_es:            0.032223
##########    Int_energy:            3.010416

@<TRIPOS>MOLECULE
ligand
 48 51 1 0 0
SMALL
No Charge or Current Charge


@<TRIPOS>ATOM
      1 H1          6.9605   18.1863    4.4537 H       1  lig         0.1670
      2 H2          1.8634   26.3120    4.6213 H       1  lig         0.1473
      3 H3          2.5590   24.8912    6.3729 H       1  lig         0.0559
      4 H4          3.8934   25.8022    7.0405 H       1  lig         0.0575
      5 H5          5.0652   27.9755    2.9313 H       1  lig         0.0688
      6 H6          4.6835   27.1787    1.4061 H       1  lig         0.0740
      7 H7          3.8460   22.9140    6.1520 H       1  lig         0.0477
      8 H8          4.3012   23.5675    7.7211 H       1  lig         0.0465
      9 H9          6.5339   26.0811    2.7202 H       1  lig         0.0495
     10 H10         5.2100   24.9844    2.3232 H       1  lig         0.0527
     11 H11         5.4876   21.3120    7.9483 H       1  lig         0.0459
     12 H12         6.5056   22.5552    8.7060 H       1  lig         0.0459
     13 H13         8.0680   24.9120    4.5784 H       1  lig         0.0438
     14 H14         7.3985   24.1514    3.1631 H       1  lig         0.0425
     15 H15         8.2858   21.1661    8.7771 H       1  lig         0.0681
     16 H16         7.3520   19.8429    8.1830 H       1  lig         0.0571
     17 H17         9.1190   22.7469    4.2930 H       1  lig         0.0423
     18 H18         7.5736   21.9778    4.0655 H       1  lig         0.0489
     19 H19         5.8387   26.2888    4.9560 H       1  lig         0.0634
     20 H20         6.2776   24.4969    6.8011 H       1  lig         0.0564
     21 H21         5.4682   23.5578    4.2951 H       1  lig         0.0555
     22 H22         6.0754   21.8628    5.9220 H       1  lig         0.0551
     23 H23         9.0306   23.1511    7.9696 H       1  lig         0.0433
     24 H24         9.9421   23.4632    6.5165 H       1  lig         0.0424
     25 H25         8.5350   24.4517    6.8888 H       1  lig         0.0357
     26 H26        10.1950   20.9341    5.9247 H       1  lig         0.4072
     27 C1          7.3419   19.0162    5.0080 C.1     1  lig        -0.1335
     28 C2          7.8023   19.9844    5.7007 C.1     1  lig        -0.1688
     29 C3          2.8701   26.2572    4.2239 C.2     1  lig        -0.2674
     30 C4          3.9844   25.6507    4.8968 C.2     1  lig        -0.0292
     31 C5          3.2012   26.9187    2.9339 C.2     1  lig         0.5673
     32 C6          3.6353   25.0579    6.2833 C.3     1  lig        -0.0559
     33 C7          4.6438   27.0791    2.4766 C.3     1  lig        -0.1823
     34 C8          4.3648   23.7345    6.6473 C.3     1  lig        -0.0728
     35 C9          5.4902   25.8450    2.9376 C.3     1  lig        -0.0705
     36 C10         6.4423   21.8398    7.8887 C.3     1  lig        -0.0740
     37 C11         7.4200   24.0971    4.2468 C.3     1  lig        -0.0723
     38 C12         7.6369   20.8619    7.9568 C.3     1  lig        -0.0690
     39 C13         8.0855   22.7510    4.6399 C.3     1  lig        -0.0643
     40 C14         5.3073   25.4823    4.4432 C.3     1  lig        -0.0353
     41 C15         5.8447   23.7236    6.1626 C.3     1  lig        -0.0466
     42 C16         6.0175   24.3048    4.8783 C.3     1  lig        -0.0538
     43 C17         6.5974   22.5741    6.5688 C.3     1  lig        -0.0659
     44 C18         8.3902   21.0000    6.6234 C.3     1  lig         0.2372
     45 C19         8.0478   22.4055    6.1411 C.3     1  lig        -0.0680
     46 C20         8.9331   23.4371    6.9330 C.3     1  lig        -0.0802
     47 O1          2.2895   27.3693    2.3294 O.2     1  lig        -0.5348
     48 O2          9.7787   20.6874    6.7748 O.3     1  lig        -0.5805
@<TRIPOS>BOND
     1    31    47    2
     2    31    33    1
     3    29    31    1
     4    33    35    1
     5     5    33    1
     6     6    33    1
     7    29    30    2
     8     2    29    1
     9    30    32    1
    10    30    40    1
    11    32    34    1
    12     3    32    1
    13     4    32    1
    14    35    40    1
    15    40    42    1
    16    19    40    1
    17     9    35    1
    18    10    35    1
    19    41    42    1
    20    37    42    1
    21    21    42    1
    22    34    41    1
    23    41    43    1
    24    20    41    1
    25     7    34    1
    26     8    34    1
    27    37    39    1
    28    13    37    1
    29    14    37    1
    30    39    45    1
    31    17    39    1
    32    18    39    1
    33    43    45    1
    34    45    46    1
    35    44    45    1
    36    36    43    1
    37    22    43    1
    38    23    46    1
    39    24    46    1
    40    25    46    1
    41    44    48    1
    42    38    44    1
    43    28    44    1
    44    26    48    1
    45    36    38    1
    46    15    38    1
    47    16    38    1
    48    11    36    1
    49    12    36    1
    50    27    28    3
    51     1    27    1
@<TRIPOS>SUBSTRUCTURE
     1 lig         1 TEMP              0 ****  ****    0 ROOT


########## Name:		ligand
########## HA_RMSDs:		17.2242
########## HA_RMSDh:		17.2033
########## HA_RMSDm:		13.7495
########## Cluster Size:	1
##########    Grid Score:           -7.168723
##########      Grid_vdw:           -6.857662
##########       Grid_es:           -0.311061
##########    Int_energy:            3.003828

@<TRIPOS>MOLECULE
ligand
 48 51 1 0 0
SMALL
No Charge or Current Charge


@<TRIPOS>ATOM
      1 H1          5.1029   28.8682   12.5749 H       1  lig         0.1670
      2 H2          6.2089   19.3153   12.0630 H       1  lig         0.1473
      3 H3          6.7964   20.8379   13.7680 H       1  lig         0.0559
      4 H4          5.5185   20.5596   14.9280 H       1  lig         0.0575
      5 H5          2.2429   19.2294   11.6901 H       1  lig         0.0688
      6 H6          2.3772   19.8383   10.0415 H       1  lig         0.0740
      7 H7          6.4443   23.1809   13.7427 H       1  lig         0.0477
      8 H8          6.3215   22.7314   15.4395 H       1  lig         0.0465
      9 H9          1.7063   21.5746   11.7418 H       1  lig         0.0495
     10 H10         3.1432   22.0163   10.8181 H       1  lig         0.0527
     11 H11         6.3205   25.2684   15.7713 H       1  lig         0.0459
     12 H12         5.2045   24.5520   16.9533 H       1  lig         0.0459
     13 H13         1.5167   23.2227   13.8443 H       1  lig         0.0438
     14 H14         1.9168   23.6728   12.2113 H       1  lig         0.0425
     15 H15         4.2920   26.5633   17.4285 H       1  lig         0.0681
     16 H16         5.4250   27.3824   16.4180 H       1  lig         0.0571
     17 H17         1.4196   25.6375   13.6612 H       1  lig         0.0423
     18 H18         2.9669   25.6831   12.8640 H       1  lig         0.0489
     19 H19         2.9662   21.0165   13.6461 H       1  lig         0.0634
     20 H20         3.9552   22.7623   15.3140 H       1  lig         0.0564
     21 H21         4.1780   23.3507   12.5898 H       1  lig         0.0555
     22 H22         4.9109   25.0878   14.1175 H       1  lig         0.0551
     23 H23         2.5728   25.1120   17.1373 H       1  lig         0.0433
     24 H24         1.1812   25.2659   16.0984 H       1  lig         0.0424
     25 H25         2.0924   23.7608   16.1130 H       1  lig         0.0357
     26 H26         2.1107   27.1795   16.6729 H       1  lig         0.4072
     27 C1          4.6634   28.2454   13.3235 C.1     1  lig        -0.1335
     28 C2          4.1455   27.5287   14.2441 C.1     1  lig        -0.1688
     29 C3          5.2446   19.8063   12.0048 C.2     1  lig        -0.2674
     30 C4          4.7781   20.8066   12.9236 C.2     1  lig        -0.0292
     31 C5          4.2560   19.3920   10.9742 C.2     1  lig         0.5673
     32 C6          5.7864   21.1481   14.0472 C.3     1  lig        -0.0559
     33 C7          2.8140   19.8759   11.0240 C.3     1  lig        -0.1823
     34 C8          5.8356   22.6431   14.4694 C.3     1  lig        -0.0728
     35 C9          2.7604   21.3368   11.5852 C.3     1  lig        -0.0705
     36 C10         5.2753   25.1993   16.0817 C.3     1  lig        -0.0740
     37 C11         2.2877   23.6950   13.2309 C.3     1  lig        -0.0723
     38 C12         4.6887   26.5897   16.4144 C.3     1  lig        -0.0690
     39 C13         2.4103   25.1825   13.6574 C.3     1  lig        -0.0643
     40 C14         3.5738   21.5368   12.9006 C.3     1  lig        -0.0353
     41 C15         4.4233   23.2988   14.4856 C.3     1  lig        -0.0466
     42 C16         3.6035   22.8894   13.4004 C.3     1  lig        -0.0538
     43 C17         4.3956   24.6451   14.9751 C.3     1  lig        -0.0659
     44 C18         3.5429   26.8296   15.4173 C.3     1  lig         0.2372
     45 C19         3.0922   25.4289   15.0171 C.3     1  lig        -0.0680
     46 C20         2.1870   24.8463   16.1644 C.3     1  lig        -0.0802
     47 O1          4.6382   18.6166   10.1664 O.2     1  lig        -0.5348
     48 O2          2.5471   27.6980   15.9675 O.3     1  lig        -0.5805
@<TRIPOS>BOND
     1    31    47    2
     2    31    33    1
     3    29    31    1
     4    33    35    1
     5     5    33    1
     6     6    33    1
     7    29    30    2
     8     2    29    1
     9    30    32    1
    10    30    40    1
    11    32    34    1
    12     3    32    1
    13     4    32    1
    14    35    40    1
    15    40    42    1
    16    19    40    1
    17     9    35    1
    18    10    35    1
    19    41    42    1
    20    37    42    1
    21    21    42    1
    22    34    41    1
    23    41    43    1
    24    20    41    1
    25     7    34    1
    26     8    34    1
    27    37    39    1
    28    13    37    1
    29    14    37    1
    30    39    45    1
    31    17    39    1
    32    18    39    1
    33    43    45    1
    34    45    46    1
    35    44    45    1
    36    36    43    1
    37    22    43    1
    38    23    46    1
    39    24    46    1
    40    25    46    1
    41    44    48    1
    42    38    44    1
    43    28    44    1
    44    26    48    1
    45    36    38    1
    46    15    38    1
    47    16    38    1
    48    11    36    1
    49    12    36    1
    50    27    28    3
    51     1    27    1
@<TRIPOS>SUBSTRUCTURE
     1 lig         1 TEMP              0 ****  ****    0 ROOT


########## Name:		ligand
########## HA_RMSDs:		18.8912
########## HA_RMSDh:		18.8912
########## HA_RMSDm:		14.7173
########## Cluster Size:	2
##########    Grid Score:           -7.146208
##########      Grid_vdw:           -5.688527
##########       Grid_es:           -1.457680
##########    Int_energy:            3.277918

@<TRIPOS>MOLECULE
ligand
 48 51 1 0 0
SMALL
No Charge or Current Charge


@<TRIPOS>ATOM
      1 H1         32.6783   18.0531   35.0585 H       1  lig         0.1670
      2 H2         35.2990   13.5299   27.5983 H       1  lig         0.1473
      3 H3         35.6512   13.0060   29.8724 H       1  lig         0.0559
      4 H4         34.4838   11.7269   30.1117 H       1  lig         0.0575
      5 H5         31.4063   13.2874   26.7837 H       1  lig         0.0688
      6 H6         31.3739   15.0054   26.3909 H       1  lig         0.0740
      7 H7         34.8744   14.2447   31.7369 H       1  lig         0.0477
      8 H8         34.8904   12.5740   32.2890 H       1  lig         0.0465
      9 H9         30.4503   14.4397   28.6675 H       1  lig         0.0495
     10 H10        31.7514   15.6304   28.7147 H       1  lig         0.0527
     11 H11        34.4344   13.6649   34.5580 H       1  lig         0.0459
     12 H12        33.5071   12.1521   34.4713 H       1  lig         0.0459
     13 H13        30.0286   13.5532   31.1592 H       1  lig         0.0438
     14 H14        30.2870   15.2065   30.6805 H       1  lig         0.0425
     15 H15        32.2566   12.7239   36.2638 H       1  lig         0.0681
     16 H16        33.1872   14.1514   36.5320 H       1  lig         0.0571
     17 H17        29.4842   14.9946   33.0300 H       1  lig         0.0423
     18 H18        30.9705   15.8806   32.8365 H       1  lig         0.0489
     19 H19        31.8513   12.7144   29.4325 H       1  lig         0.0634
     20 H20        32.5559   12.3929   31.9241 H       1  lig         0.0564
     21 H21        32.5798   15.0067   30.9317 H       1  lig         0.0555
     22 H22        33.0298   14.7645   33.3039 H       1  lig         0.0551
     23 H23        30.8246   11.9646   34.6764 H       1  lig         0.0433
     24 H24        29.3959   12.7347   34.0398 H       1  lig         0.0424
     25 H25        30.5679   12.0278   32.9341 H       1  lig         0.0357
     26 H26        30.5974   14.6750   37.0130 H       1  lig         0.4072
     27 C1         32.2863   17.0659   35.1734 C.1     1  lig        -0.1335
     28 C2         31.8338   15.8768   35.2767 C.1     1  lig        -0.1688
     29 C3         34.2596   13.7198   27.8390 C.2     1  lig        -0.2674
     30 C4         33.6470   13.4343   29.1061 C.2     1  lig        -0.0292
     31 C5         33.3315   14.2283   26.7944 C.2     1  lig         0.5673
     32 C6         34.6109   12.8116   30.1449 C.3     1  lig        -0.0559
     33 C7         31.8275   14.2634   27.0243 C.3     1  lig        -0.1823
     34 C8         34.3983   13.2721   31.6141 C.3     1  lig        -0.0728
     35 C9         31.5246   14.5766   28.5283 C.3     1  lig        -0.0705
     36 C10        33.4300   13.2357   34.5310 C.3     1  lig        -0.0740
     37 C11        30.6799   14.4169   31.3129 C.3     1  lig        -0.0723
     38 C12        32.6091   13.6331   35.7785 C.3     1  lig        -0.0690
     39 C13        30.5409   14.8791   32.7882 C.3     1  lig        -0.0643
     40 C14        32.3290   13.6932   29.5304 C.3     1  lig        -0.0353
     41 C15        32.8908   13.4316   31.9706 C.3     1  lig        -0.0466
     42 C16        32.1259   14.0097   30.9228 C.3     1  lig        -0.0538
     43 C17        32.6322   13.7461   33.3442 C.3     1  lig        -0.0659
     44 C18        31.4075   14.4462   35.2691 C.3     1  lig         0.2372
     45 C19        31.2091   13.9670   33.8351 C.3     1  lig        -0.0680
     46 C20        30.4633   12.5821   33.8678 C.3     1  lig        -0.0802
     47 O1         33.8235   14.5319   25.7622 O.2     1  lig        -0.5348
     48 O2         30.2873   14.3290   36.1522 O.3     1  lig        -0.5805
@<TRIPOS>BOND
     1    31    47    2
     2    31    33    1
     3    29    31    1
     4    33    35    1
     5     5    33    1
     6     6    33    1
     7    29    30    2
     8     2    29    1
     9    30    32    1
    10    30    40    1
    11    32    34    1
    12     3    32    1
    13     4    32    1
    14    35    40    1
    15    40    42    1
    16    19    40    1
    17     9    35    1
    18    10    35    1
    19    41    42    1
    20    37    42    1
    21    21    42    1
    22    34    41    1
    23    41    43    1
    24    20    41    1
    25     7    34    1
    26     8    34    1
    27    37    39    1
    28    13    37    1
    29    14    37    1
    30    39    45    1
    31    17    39    1
    32    18    39    1
    33    43    45    1
    34    45    46    1
    35    44    45    1
    36    36    43    1
    37    22    43    1
    38    23    46    1
    39    24    46    1
    40    25    46    1
    41    44    48    1
    42    38    44    1
    43    28    44    1
    44    26    48    1
    45    36    38    1
    46    15    38    1
    47    16    38    1
    48    11    36    1
    49    12    36    1
    50    27    28    3
    51     1    27    1
@<TRIPOS>SUBSTRUCTURE
     1 lig         1 TEMP              0 ****  ****    0 ROOT


########## Name:		ligand
########## HA_RMSDs:		16.3962
########## HA_RMSDh:		16.1080
########## HA_RMSDm:		7.7497
########## Cluster Size:	1
##########    Grid Score:           -7.144509
##########      Grid_vdw:           -4.853066
##########       Grid_es:           -2.291442
##########    Int_energy:            3.004303

@<TRIPOS>MOLECULE
ligand
 48 51 1 0 0
SMALL
No Charge or Current Charge


@<TRIPOS>ATOM
      1 H1         18.7554   22.8300   30.4106 H       1  lig         0.1670
      2 H2         18.9307   16.2457   37.4299 H       1  lig         0.1473
      3 H3         18.5522   18.5736   37.5180 H       1  lig         0.0559
      4 H4         16.8152   18.6290   37.7075 H       1  lig         0.0575
      5 H5         15.9717   14.5111   35.4024 H       1  lig         0.0688
      6 H6         17.1182   13.9686   34.1786 H       1  lig         0.0740
      7 H7         18.5321   20.0651   35.6770 H       1  lig         0.0477
      8 H8         17.3830   20.7528   36.8184 H       1  lig         0.0465
      9 H9         15.7589   15.9843   33.5117 H       1  lig         0.0495
     10 H10        17.5003   16.2465   33.4052 H       1  lig         0.0527
     11 H11        17.4529   22.7278   35.1933 H       1  lig         0.0459
     12 H12        15.7862   22.5499   35.7818 H       1  lig         0.0459
     13 H13        14.5371   18.3618   33.3462 H       1  lig         0.0438
     14 H14        15.8702   17.8149   32.3700 H       1  lig         0.0425
     15 H15        14.9874   23.9143   34.1681 H       1  lig         0.0681
     16 H16        16.5770   24.2757   33.6041 H       1  lig         0.0571
     17 H17        14.8218   19.8990   31.4942 H       1  lig         0.0423
     18 H18        16.5351   20.0030   31.7868 H       1  lig         0.0489
     19 H19        15.5810   17.2278   35.4984 H       1  lig         0.0634
     20 H20        15.5688   19.8350   35.6009 H       1  lig         0.0564
     21 H21        17.4201   18.6472   33.8750 H       1  lig         0.0555
     22 H22        17.2852   21.0685   33.7884 H       1  lig         0.0551
     23 H23        13.6325   22.0955   34.2237 H       1  lig         0.0433
     24 H24        13.1506   21.0554   32.9100 H       1  lig         0.0424
     25 H25        13.7121   20.3459   34.4190 H       1  lig         0.0357
     26 H26        14.4563   22.5569   31.0187 H       1  lig         0.4072
     27 C1         17.8923   22.6948   31.0257 C.1     1  lig        -0.1335
     28 C2         16.8553   22.5714   31.7595 C.1     1  lig        -0.1688
     29 C3         18.2459   16.2013   36.5912 C.2     1  lig        -0.2674
     30 C4         17.4348   17.2959   36.1372 C.2     1  lig        -0.0292
     31 C5         18.0216   14.9165   35.8769 C.2     1  lig         0.5673
     32 C6         17.6122   18.5943   36.9609 C.3     1  lig        -0.0559
     33 C7         16.8903   14.7597   34.8711 C.3     1  lig        -0.1823
     34 C8         17.5591   19.9161   36.1448 C.3     1  lig        -0.0728
     35 C9         16.6692   16.1058   34.1024 C.3     1  lig        -0.0705
     36 C10        16.4265   22.4901   34.9042 C.3     1  lig        -0.0740
     37 C11        15.5660   18.5942   33.0613 C.3     1  lig        -0.0723
     38 C12        15.9070   23.4520   33.8120 C.3     1  lig        -0.0690
     39 C13        15.5682   19.9400   32.2878 C.3     1  lig        -0.0643
     40 C14        16.5625   17.3527   35.0327 C.3     1  lig        -0.0353
     41 C15        16.4894   19.8692   35.0140 C.3     1  lig        -0.0466
     42 C16        16.4329   18.6157   34.3486 C.3     1  lig        -0.0538
     43 C17        16.3195   21.1005   34.3015 C.3     1  lig        -0.0659
     44 C18        15.6060   22.5873   32.5766 C.3     1  lig         0.2372
     45 C19        15.3351   21.1987   33.1456 C.3     1  lig        -0.0680
     46 C20        13.8716   21.1697   33.7220 C.3     1  lig        -0.0802
     47 O1         18.7233   14.0165   36.1889 O.2     1  lig        -0.5348
     48 O2         14.5759   23.1698   31.7716 O.3     1  lig        -0.5805
@<TRIPOS>BOND
     1    31    47    2
     2    31    33    1
     3    29    31    1
     4    33    35    1
     5     5    33    1
     6     6    33    1
     7    29    30    2
     8     2    29    1
     9    30    32    1
    10    30    40    1
    11    32    34    1
    12     3    32    1
    13     4    32    1
    14    35    40    1
    15    40    42    1
    16    19    40    1
    17     9    35    1
    18    10    35    1
    19    41    42    1
    20    37    42    1
    21    21    42    1
    22    34    41    1
    23    41    43    1
    24    20    41    1
    25     7    34    1
    26     8    34    1
    27    37    39    1
    28    13    37    1
    29    14    37    1
    30    39    45    1
    31    17    39    1
    32    18    39    1
    33    43    45    1
    34    45    46    1
    35    44    45    1
    36    36    43    1
    37    22    43    1
    38    23    46    1
    39    24    46    1
    40    25    46    1
    41    44    48    1
    42    38    44    1
    43    28    44    1
    44    26    48    1
    45    36    38    1
    46    15    38    1
    47    16    38    1
    48    11    36    1
    49    12    36    1
    50    27    28    3
    51     1    27    1
@<TRIPOS>SUBSTRUCTURE
     1 lig         1 TEMP              0 ****  ****    0 ROOT


########## Name:		ligand
########## HA_RMSDs:		18.7921
########## HA_RMSDh:		18.3858
########## HA_RMSDm:		13.2051
########## Cluster Size:	1
##########    Grid Score:           -6.814134
##########      Grid_vdw:           -6.677452
##########       Grid_es:           -0.136681
##########    Int_energy:            3.236004

@<TRIPOS>MOLECULE
ligand
 48 51 1 0 0
SMALL
No Charge or Current Charge


@<TRIPOS>ATOM
      1 H1         30.3187   21.9772   35.5840 H       1  lig         0.1670
      2 H2         23.9180   15.7507   33.6344 H       1  lig         0.1473
      3 H3         25.3032   17.0040   32.1919 H       1  lig         0.0559
      4 H4         26.4725   15.7972   31.7095 H       1  lig         0.0575
      5 H5         26.1642   13.2233   35.7421 H       1  lig         0.0688
      6 H6         25.6851   14.0301   37.2342 H       1  lig         0.0740
      7 H7         26.9732   18.5539   32.8424 H       1  lig         0.0477
      8 H8         27.5672   17.8672   31.3351 H       1  lig         0.0465
      9 H9         27.9868   14.6453   36.4100 H       1  lig         0.0495
     10 H10        26.9314   16.0390   36.6477 H       1  lig         0.0527
     11 H11        29.3070   19.7303   31.5549 H       1  lig         0.0459
     12 H12        30.1122   18.2921   30.8923 H       1  lig         0.0459
     13 H13        30.1223   15.4362   35.0004 H       1  lig         0.0438
     14 H14        29.3856   16.2896   36.3265 H       1  lig         0.0425
     15 H15        32.1603   19.1559   31.2965 H       1  lig         0.0681
     16 H16        31.4892   20.6552   31.8230 H       1  lig         0.0571
     17 H17        31.6037   17.2276   35.6864 H       1  lig         0.0423
     18 H18        30.2917   18.3722   35.6850 H       1  lig         0.0489
     19 H19        27.7477   14.7229   34.0730 H       1  lig         0.0634
     20 H20        29.0042   16.4059   32.5249 H       1  lig         0.0564
     21 H21        27.9514   17.4240   34.9065 H       1  lig         0.0555
     22 H22        29.2964   18.9599   33.5948 H       1  lig         0.0551
     23 H23        32.1905   17.0126   32.0398 H       1  lig         0.0433
     24 H24        32.6666   16.4088   33.6045 H       1  lig         0.0424
     25 H25        31.1656   15.8490   32.8769 H       1  lig         0.0357
     26 H26        33.5676   18.4543   32.9480 H       1  lig         0.4072
     27 C1         30.8074   21.2172   35.0140 C.1     1  lig        -0.1335
     28 C2         31.3568   20.2969   34.3207 C.1     1  lig        -0.1688
     29 C3         24.7989   15.5177   34.2211 C.2     1  lig        -0.2674
     30 C4         26.1462   15.8309   33.8353 C.2     1  lig        -0.0292
     31 C5         24.6726   14.7396   35.4820 C.2     1  lig         0.5673
     32 C6         26.2584   16.5518   32.4702 C.3     1  lig        -0.0559
     33 C7         25.8980   14.1804   36.1904 C.3     1  lig        -0.1823
     34 C8         27.3592   17.6454   32.3803 C.3     1  lig        -0.0728
     35 C9         27.1069   15.1608   36.0197 C.3     1  lig        -0.0705
     36 C10        30.0621   18.9643   31.7464 C.3     1  lig        -0.0740
     37 C11        29.6474   16.3805   35.2772 C.3     1  lig        -0.0723
     38 C12        31.4523   19.5888   32.0020 C.3     1  lig        -0.0690
     39 C13        30.6997   17.5144   35.1488 C.3     1  lig        -0.0643
     40 C14        27.3426   15.6204   34.5484 C.3     1  lig        -0.0353
     41 C15        28.6574   17.2401   33.1389 C.3     1  lig        -0.0466
     42 C16        28.4032   16.5818   34.3714 C.3     1  lig        -0.0538
     43 C17        29.7449   18.1619   32.9957 C.3     1  lig        -0.0659
     44 C18        31.8483   19.1996   33.4360 C.3     1  lig         0.2372
     45 C19        31.0672   17.9185   33.7079 C.3     1  lig        -0.0680
     46 C20        31.8081   16.7209   33.0064 C.3     1  lig        -0.0802
     47 O1         23.5704   14.5250   35.8547 O.2     1  lig        -0.5348
     48 O2         33.2704   19.1352   33.5843 O.3     1  lig        -0.5805
@<TRIPOS>BOND
     1    31    47    2
     2    31    33    1
     3    29    31    1
     4    33    35    1
     5     5    33    1
     6     6    33    1
     7    29    30    2
     8     2    29    1
     9    30    32    1
    10    30    40    1
    11    32    34    1
    12     3    32    1
    13     4    32    1
    14    35    40    1
    15    40    42    1
    16    19    40    1
    17     9    35    1
    18    10    35    1
    19    41    42    1
    20    37    42    1
    21    21    42    1
    22    34    41    1
    23    41    43    1
    24    20    41    1
    25     7    34    1
    26     8    34    1
    27    37    39    1
    28    13    37    1
    29    14    37    1
    30    39    45    1
    31    17    39    1
    32    18    39    1
    33    43    45    1
    34    45    46    1
    35    44    45    1
    36    36    43    1
    37    22    43    1
    38    23    46    1
    39    24    46    1
    40    25    46    1
    41    44    48    1
    42    38    44    1
    43    28    44    1
    44    26    48    1
    45    36    38    1
    46    15    38    1
    47    16    38    1
    48    11    36    1
    49    12    36    1
    50    27    28    3
    51     1    27    1
@<TRIPOS>SUBSTRUCTURE
     1 lig         1 TEMP              0 ****  ****    0 ROOT


########## Name:		ligand
########## HA_RMSDs:		19.1554
########## HA_RMSDh:		18.8684
########## HA_RMSDm:		14.1672
########## Cluster Size:	1
##########    Grid Score:           -6.610577
##########      Grid_vdw:           -6.554631
##########       Grid_es:           -0.055946
##########    Int_energy:            3.188641

@<TRIPOS>MOLECULE
ligand
 48 51 1 0 0
SMALL
No Charge or Current Charge


@<TRIPOS>ATOM
      1 H1         34.5848   18.3729   36.3074 H       1  lig         0.1670
      2 H2         26.3593   17.9636   31.7303 H       1  lig         0.1473
      3 H3         28.4969   18.4391   30.8500 H       1  lig         0.0559
      4 H4         28.9126   16.9064   30.1190 H       1  lig         0.0575
      5 H5         26.3215   14.2387   33.1442 H       1  lig         0.0688
      6 H6         26.0097   14.8502   34.7677 H       1  lig         0.0740
      7 H7         30.5247   18.5581   32.0699 H       1  lig         0.0477
      8 H8         30.9976   17.9776   30.4776 H       1  lig         0.0465
      9 H9         28.4002   14.1648   34.3540 H       1  lig         0.0495
     10 H10        28.2354   15.8282   34.9184 H       1  lig         0.0527
     11 H11        33.3525   18.3903   31.3889 H       1  lig         0.0459
     12 H12        33.3922   16.9234   30.3878 H       1  lig         0.0459
     13 H13        30.8900   13.8332   33.4246 H       1  lig         0.0438
     14 H14        30.4341   14.6648   34.8840 H       1  lig         0.0425
     15 H15        35.4174   16.3320   31.1958 H       1  lig         0.0681
     16 H16        35.5514   17.7968   32.0969 H       1  lig         0.0571
     17 H17        32.8859   14.2449   34.7364 H       1  lig         0.0423
     18 H18        32.4368   15.9097   34.9778 H       1  lig         0.0489
     19 H19        28.8058   14.8390   32.1392 H       1  lig         0.0634
     20 H20        31.0947   15.7494   31.2788 H       1  lig         0.0564
     21 H21        30.2190   16.6804   33.7654 H       1  lig         0.0555
     22 H22        32.4443   17.3754   33.0919 H       1  lig         0.0551
     23 H23        34.1162   14.4744   31.2547 H       1  lig         0.0433
     24 H24        33.8049   13.4044   32.5955 H       1  lig         0.0424
     25 H25        32.4628   13.9830   31.6158 H       1  lig         0.0357
     26 H26        36.5547   15.7683   33.5431 H       1  lig         0.4072
     27 C1         34.6161   17.8006   35.4058 C.1     1  lig        -0.1335
     28 C2         34.6562   17.0845   34.3499 C.1     1  lig        -0.1688
     29 C3         26.8079   17.1490   32.2867 C.2     1  lig        -0.2674
     30 C4         28.1590   16.6912   32.1222 C.2     1  lig        -0.0292
     31 C5         25.9879   16.3533   33.2383 C.2     1  lig         0.5673
     32 C6         28.9619   17.4711   31.0531 C.3     1  lig        -0.0559
     33 C7         26.5117   15.0567   33.8388 C.3     1  lig        -0.1823
     34 C8         30.4609   17.7116   31.3865 C.3     1  lig        -0.0728
     35 C9         28.0569   15.1615   34.0697 C.3     1  lig        -0.0705
     36 C10        33.5080   17.3089   31.3985 C.3     1  lig        -0.0740
     37 C11        30.9452   14.7972   33.9359 C.3     1  lig        -0.0723
     38 C12        34.9076   16.9414   31.9409 C.3     1  lig        -0.0690
     39 C13        32.4356   15.1054   34.2410 C.3     1  lig        -0.0643
     40 C14        28.8452   15.6854   32.8305 C.3     1  lig        -0.0353
     41 C15        31.1142   16.4838   32.0870 C.3     1  lig        -0.0466
     42 C16        30.2614   15.8626   33.0379 C.3     1  lig        -0.0538
     43 C17        32.5230   16.6074   32.3167 C.3     1  lig        -0.0659
     44 C18        34.6776   16.1136   33.2162 C.3     1  lig         0.2372
     45 C19        33.2937   15.5026   33.0242 C.3     1  lig        -0.0680
     46 C20        33.4195   14.2706   32.0540 C.3     1  lig        -0.0802
     47 O1         24.8913   16.7490   33.4398 O.2     1  lig        -0.5348
     48 O2         35.7595   15.2063   33.4503 O.3     1  lig        -0.5805
@<TRIPOS>BOND
     1    31    47    2
     2    31    33    1
     3    29    31    1
     4    33    35    1
     5     5    33    1
     6     6    33    1
     7    29    30    2
     8     2    29    1
     9    30    32    1
    10    30    40    1
    11    32    34    1
    12     3    32    1
    13     4    32    1
    14    35    40    1
    15    40    42    1
    16    19    40    1
    17     9    35    1
    18    10    35    1
    19    41    42    1
    20    37    42    1
    21    21    42    1
    22    34    41    1
    23    41    43    1
    24    20    41    1
    25     7    34    1
    26     8    34    1
    27    37    39    1
    28    13    37    1
    29    14    37    1
    30    39    45    1
    31    17    39    1
    32    18    39    1
    33    43    45    1
    34    45    46    1
    35    44    45    1
    36    36    43    1
    37    22    43    1
    38    23    46    1
    39    24    46    1
    40    25    46    1
    41    44    48    1
    42    38    44    1
    43    28    44    1
    44    26    48    1
    45    36    38    1
    46    15    38    1
    47    16    38    1
    48    11    36    1
    49    12    36    1
    50    27    28    3
    51     1    27    1
@<TRIPOS>SUBSTRUCTURE
     1 lig         1 TEMP              0 ****  ****    0 ROOT


########## Name:		ligand
########## HA_RMSDs:		21.8082
########## HA_RMSDh:		21.6792
########## HA_RMSDm:		17.9200
########## Cluster Size:	1
##########    Grid Score:           -6.483537
##########      Grid_vdw:           -6.445854
##########       Grid_es:           -0.037683
##########    Int_energy:            3.165822

@<TRIPOS>MOLECULE
ligand
 48 51 1 0 0
SMALL
No Charge or Current Charge


@<TRIPOS>ATOM
      1 H1         34.4875    5.2180   33.5269 H       1  lig         0.1670
      2 H2         33.7700   14.5827   32.4303 H       1  lig         0.1473
      3 H3         32.8943   12.8779   31.0530 H       1  lig         0.0559
      4 H4         31.2185   12.8652   31.5509 H       1  lig         0.0575
      5 H5         32.0582   14.3764   36.0223 H       1  lig         0.0688
      6 H6         33.6240   14.0371   36.7572 H       1  lig         0.0740
      7 H7         33.1453   10.5437   31.3740 H       1  lig         0.0477
      8 H8         31.5725   10.7198   30.6048 H       1  lig         0.0465
      9 H9         32.1512   12.0124   36.4619 H       1  lig         0.0495
     10 H10        33.7366   11.8425   35.7065 H       1  lig         0.0527
     11 H11        31.7341    8.1716   30.4414 H       1  lig         0.0459
     12 H12        30.0456    8.6011   30.7881 H       1  lig         0.0459
     13 H13        30.5677   10.0560   35.5467 H       1  lig         0.0438
     14 H14        32.2274    9.8940   36.0452 H       1  lig         0.0425
     15 H15        29.5324    6.4691   31.3311 H       1  lig         0.0681
     16 H16        31.1026    5.9141   30.8819 H       1  lig         0.0571
     17 H17        31.0939    7.6973   35.7303 H       1  lig         0.0423
     18 H18        32.5594    7.9080   34.8142 H       1  lig         0.0489
     19 H19        31.0856   12.3851   34.4002 H       1  lig         0.0634
     20 H20        30.4838   10.5012   32.6983 H       1  lig         0.0564
     21 H21        32.9986   10.3520   33.9108 H       1  lig         0.0555
     22 H22        32.3837    8.4753   32.5008 H       1  lig         0.0551
     23 H23        28.6533    7.7917   32.9512 H       1  lig         0.0433
     24 H24        28.8511    7.6749   34.6795 H       1  lig         0.0424
     25 H25        29.0386    9.2345   33.8868 H       1  lig         0.0357
     26 H26        30.3386    5.3748   34.5240 H       1  lig         0.4072
     27 C1         33.5023    5.5734   33.3157 C.1     1  lig        -0.1335
     28 C2         32.3141    5.9857   33.0981 C.1     1  lig        -0.1688
     29 C3         33.4156   14.0236   33.2883 C.2     1  lig        -0.2674
     30 C4         32.5778   12.8594   33.2180 C.2     1  lig        -0.0292
     31 C5         33.7118   14.5005   34.6652 C.2     1  lig         0.5673
     32 C6         32.2004   12.4420   31.7761 C.3     1  lig        -0.0559
     33 C7         33.0228   13.8902   35.8772 C.3     1  lig        -0.1823
     34 C8         32.1295   10.9105   31.5204 C.3     1  lig        -0.0728
     35 C9         32.7765   12.3624   35.6381 C.3     1  lig        -0.0705
     36 C10        30.9300    8.1013   31.1777 C.3     1  lig        -0.0740
     37 C11        31.5588    9.7509   35.2025 C.3     1  lig        -0.0723
     38 C12        30.5941    6.6307   31.5130 C.3     1  lig        -0.0690
     39 C13        31.5202    8.2326   34.8817 C.3     1  lig        -0.0643
     40 C14        32.1138   12.0384   34.2643 C.3     1  lig        -0.0353
     41 C15        31.5138   10.1388   32.7247 C.3     1  lig        -0.0466
     42 C16        31.9427   10.6338   33.9850 C.3     1  lig        -0.0538
     43 C17        31.3214    8.7369   32.5000 C.3     1  lig        -0.0659
     44 C18        30.8963    6.4445   33.0092 C.3     1  lig         0.2372
     45 C19        30.7614    7.8447   33.5979 C.3     1  lig        -0.0680
     46 C20        29.2324    8.1662   33.7820 C.3     1  lig        -0.0802
     47 O1         34.4524   15.4191   34.7513 O.2     1  lig        -0.5348
     48 O2         30.0783    5.4193   33.5821 O.3     1  lig        -0.5805
@<TRIPOS>BOND
     1    31    47    2
     2    31    33    1
     3    29    31    1
     4    33    35    1
     5     5    33    1
     6     6    33    1
     7    29    30    2
     8     2    29    1
     9    30    32    1
    10    30    40    1
    11    32    34    1
    12     3    32    1
    13     4    32    1
    14    35    40    1
    15    40    42    1
    16    19    40    1
    17     9    35    1
    18    10    35    1
    19    41    42    1
    20    37    42    1
    21    21    42    1
    22    34    41    1
    23    41    43    1
    24    20    41    1
    25     7    34    1
    26     8    34    1
    27    37    39    1
    28    13    37    1
    29    14    37    1
    30    39    45    1
    31    17    39    1
    32    18    39    1
    33    43    45    1
    34    45    46    1
    35    44    45    1
    36    36    43    1
    37    22    43    1
    38    23    46    1
    39    24    46    1
    40    25    46    1
    41    44    48    1
    42    38    44    1
    43    28    44    1
    44    26    48    1
    45    36    38    1
    46    15    38    1
    47    16    38    1
    48    11    36    1
    49    12    36    1
    50    27    28    3
    51     1    27    1
@<TRIPOS>SUBSTRUCTURE
     1 lig         1 TEMP              0 ****  ****    0 ROOT


########## Name:		ligand
########## HA_RMSDs:		17.2272
########## HA_RMSDh:		17.0404
########## HA_RMSDm:		11.7209
########## Cluster Size:	1
##########    Grid Score:           -6.477832
##########      Grid_vdw:           -6.551277
##########       Grid_es:            0.073445
##########    Int_energy:            3.010426

@<TRIPOS>MOLECULE
ligand
 48 51 1 0 0
SMALL
No Charge or Current Charge


@<TRIPOS>ATOM
      1 H1         27.2012   16.3335   32.1600 H       1  lig         0.1670
      2 H2         18.1305   16.4726   35.2803 H       1  lig         0.1473
      3 H3         20.1185   15.7815   36.3483 H       1  lig         0.0559
      4 H4         20.4251   17.1381   37.4075 H       1  lig         0.0575
      5 H5         18.2988   20.3959   34.6060 H       1  lig         0.0688
      6 H6         18.2242   20.1081   32.8687 H       1  lig         0.0740
      7 H7         22.3011   15.8367   35.4275 H       1  lig         0.0477
      8 H8         22.5395   16.0955   37.1516 H       1  lig         0.0465
      9 H9         20.5304   20.6373   33.7388 H       1  lig         0.0495
     10 H10        20.4479   19.1141   32.8523 H       1  lig         0.0527
     11 H11        25.0011   15.7955   36.5213 H       1  lig         0.0459
     12 H12        24.8967   17.0473   37.7774 H       1  lig         0.0459
     13 H13        22.8602   20.7197   35.0573 H       1  lig         0.0438
     14 H14        22.6192   20.1890   33.4172 H       1  lig         0.0425
     15 H15        27.0175   17.7231   37.3909 H       1  lig         0.0681
     16 H16        27.2794   16.4498   36.2571 H       1  lig         0.0571
     17 H17        25.0243   20.5056   33.9872 H       1  lig         0.0423
     18 H18        24.6139   18.9285   33.3741 H       1  lig         0.0489
     19 H19        20.6119   19.5493   35.8208 H       1  lig         0.0634
     20 H20        22.7522   18.4307   36.8086 H       1  lig         0.0564
     21 H21        22.2441   18.0064   34.0921 H       1  lig         0.0555
     22 H22        24.3486   17.1361   34.9301 H       1  lig         0.0551
     23 H23        25.7393   19.5942   37.5011 H       1  lig         0.0433
     24 H24        25.6252   20.9046   36.3567 H       1  lig         0.0424
     25 H25        24.1555   20.1902   37.0091 H       1  lig         0.0357
     26 H26        27.5960   19.6626   36.3402 H       1  lig         0.4072
     27 C1         26.9682   16.9165   33.0245 C.1     1  lig        -0.1335
     28 C2         26.7190   17.5958   34.0760 C.1     1  lig        -0.1688
     29 C3         18.6551   17.3641   34.9573 C.2     1  lig        -0.2674
     30 C4         19.9686   17.7454   35.3951 C.2     1  lig        -0.0292
     31 C5         17.9813   18.3464   34.0672 C.2     1  lig         0.5673
     32 C6         20.6084   16.7571   36.4000 C.3     1  lig        -0.0559
     33 C7         18.5869   19.7174   33.8032 C.3     1  lig        -0.1823
     34 C8         22.1397   16.5417   36.2428 C.3     1  lig        -0.0728
     35 C9         20.1492   19.6148   33.7778 C.3     1  lig        -0.0705
     36 C10        25.1568   16.8548   36.7387 C.3     1  lig        -0.0740
     37 C11        22.9881   19.8673   34.3858 C.3     1  lig        -0.0723
     38 C12        26.6202   17.2783   36.4794 C.3     1  lig        -0.0690
     39 C13        24.5069   19.5805   34.2420 C.3     1  lig        -0.0643
     40 C14        20.7502   18.8465   34.9944 C.3     1  lig        -0.0353
     41 C15        22.8878   17.8603   35.8869 C.3     1  lig        -0.0466
     42 C16        22.1815   18.6720   34.9599 C.3     1  lig        -0.0538
     43 C17        24.3150   17.7429   35.8398 C.3     1  lig        -0.0659
     44 C18        26.5770   18.3363   35.3644 C.3     1  lig         0.2372
     45 C19        25.1802   18.9387   35.4706 C.3     1  lig        -0.0680
     46 C20        25.1653   19.9633   36.6644 C.3     1  lig        -0.0802
     47 O1         16.9251   18.0259   33.6413 O.2     1  lig        -0.5348
     48 O2         27.6818   19.2410   35.4617 O.3     1  lig        -0.5805
@<TRIPOS>BOND
     1    31    47    2
     2    31    33    1
     3    29    31    1
     4    33    35    1
     5     5    33    1
     6     6    33    1
     7    29    30    2
     8     2    29    1
     9    30    32    1
    10    30    40    1
    11    32    34    1
    12     3    32    1
    13     4    32    1
    14    35    40    1
    15    40    42    1
    16    19    40    1
    17     9    35    1
    18    10    35    1
    19    41    42    1
    20    37    42    1
    21    21    42    1
    22    34    41    1
    23    41    43    1
    24    20    41    1
    25     7    34    1
    26     8    34    1
    27    37    39    1
    28    13    37    1
    29    14    37    1
    30    39    45    1
    31    17    39    1
    32    18    39    1
    33    43    45    1
    34    45    46    1
    35    44    45    1
    36    36    43    1
    37    22    43    1
    38    23    46    1
    39    24    46    1
    40    25    46    1
    41    44    48    1
    42    38    44    1
    43    28    44    1
    44    26    48    1
    45    36    38    1
    46    15    38    1
    47    16    38    1
    48    11    36    1
    49    12    36    1
    50    27    28    3
    51     1    27    1
@<TRIPOS>SUBSTRUCTURE
     1 lig         1 TEMP              0 ****  ****    0 ROOT


########## Name:		ligand
########## HA_RMSDs:		15.2445
########## HA_RMSDh:		15.1576
########## HA_RMSDm:		10.4551
########## Cluster Size:	2
##########    Grid Score:           -6.178701
##########      Grid_vdw:           -6.085536
##########       Grid_es:           -0.093166
##########    Int_energy:            3.010435

@<TRIPOS>MOLECULE
ligand
 48 51 1 0 0
SMALL
No Charge or Current Charge


@<TRIPOS>ATOM
      1 H1         20.7367   16.7928   33.7884 H       1  lig         0.1670
      2 H2         13.7186   21.8204   29.6049 H       1  lig         0.1473
      3 H3         13.6776   19.7280   30.6960 H       1  lig         0.0559
      4 H4         12.9686   20.1602   32.2344 H       1  lig         0.0575
      5 H5         14.6172   24.6617   32.2496 H       1  lig         0.0688
      6 H6         16.0938   25.0321   31.3612 H       1  lig         0.0740
      7 H7         15.5209   18.6316   31.7032 H       1  lig         0.0477
      8 H8         14.1317   18.1388   32.6641 H       1  lig         0.0465
      9 H9         16.4473   23.6478   33.4384 H       1  lig         0.0495
     10 H10        17.1005   22.9019   31.9791 H       1  lig         0.0527
     11 H11        15.8306   16.5256   33.6925 H       1  lig         0.0459
     12 H12        14.7484   17.0911   34.9827 H       1  lig         0.0459
     13 H13        16.3917   21.8004   35.3766 H       1  lig         0.0438
     14 H14        17.6902   22.0790   34.2515 H       1  lig         0.0425
     15 H15        16.1284   16.3082   36.5910 H       1  lig         0.0681
     16 H16        17.1761   15.5888   35.4248 H       1  lig         0.0571
     17 H17        18.3421   20.5723   36.1262 H       1  lig         0.0423
     18 H18        18.5971   19.9184   34.5328 H       1  lig         0.0489
     19 H19        14.5915   22.2058   33.4786 H       1  lig         0.0634
     20 H20        14.6683   19.7396   34.3271 H       1  lig         0.0564
     21 H21        16.7937   20.5901   32.7220 H       1  lig         0.0555
     22 H22        16.9997   18.3661   33.6707 H       1  lig         0.0551
     23 H23        15.5359   18.4124   37.1979 H       1  lig         0.0433
     24 H24        16.5643   19.7486   37.6412 H       1  lig         0.0424
     25 H25        15.2555   20.0030   36.4930 H       1  lig         0.0357
     26 H26        18.8627   18.2578   37.4663 H       1  lig         0.4072
     27 C1         19.8999   17.0913   34.3818 C.1     1  lig        -0.1335
     28 C2         18.8964   17.4113   35.1027 C.1     1  lig        -0.1688
     29 C3         14.3017   22.2024   30.4346 C.2     1  lig        -0.2674
     30 C4         14.5584   21.4874   31.6532 C.2     1  lig        -0.0292
     31 C5         14.8233   23.5946   30.4030 C.2     1  lig         0.5673
     32 C6         13.9195   20.0784   31.7025 C.3     1  lig        -0.0559
     33 C7         15.4203   24.2422   31.6440 C.3     1  lig        -0.1823
     34 C8         14.7681   18.9840   32.4081 C.3     1  lig        -0.0728
     35 C9         16.1741   23.1669   32.4969 C.3     1  lig        -0.0705
     36 C10        15.7739   17.1009   34.6194 C.3     1  lig        -0.0740
     37 C11        16.9937   21.3231   34.5997 C.3     1  lig        -0.0723
     38 C12        16.7171   16.5286   35.7015 C.3     1  lig        -0.0690
     39 C13        17.8205   20.1826   35.2518 C.3     1  lig        -0.0643
     40 C14        15.3433   21.8733   32.7574 C.3     1  lig        -0.0353
     41 C15        15.5102   19.5303   33.6634 C.3     1  lig        -0.0466
     42 C16        16.0391   20.8352   33.4773 C.3     1  lig        -0.0538
     43 C17        16.2185   18.5386   34.4169 C.3     1  lig        -0.0659
     44 C18        17.7386   17.6334   36.0185 C.3     1  lig         0.2372
     45 C19        17.0206   18.9272   35.6500 C.3     1  lig        -0.0680
     46 C20        16.0223   19.2945   36.8092 C.3     1  lig        -0.0802
     47 O1         14.6810   24.1822   29.3860 O.2     1  lig        -0.5348
     48 O2         18.2264   17.5225   37.3594 O.3     1  lig        -0.5805
@<TRIPOS>BOND
     1    31    47    2
     2    31    33    1
     3    29    31    1
     4    33    35    1
     5     5    33    1
     6     6    33    1
     7    29    30    2
     8     2    29    1
     9    30    32    1
    10    30    40    1
    11    32    34    1
    12     3    32    1
    13     4    32    1
    14    35    40    1
    15    40    42    1
    16    19    40    1
    17     9    35    1
    18    10    35    1
    19    41    42    1
    20    37    42    1
    21    21    42    1
    22    34    41    1
    23    41    43    1
    24    20    41    1
    25     7    34    1
    26     8    34    1
    27    37    39    1
    28    13    37    1
    29    14    37    1
    30    39    45    1
    31    17    39    1
    32    18    39    1
    33    43    45    1
    34    45    46    1
    35    44    45    1
    36    36    43    1
    37    22    43    1
    38    23    46    1
    39    24    46    1
    40    25    46    1
    41    44    48    1
    42    38    44    1
    43    28    44    1
    44    26    48    1
    45    36    38    1
    46    15    38    1
    47    16    38    1
    48    11    36    1
    49    12    36    1
    50    27    28    3
    51     1    27    1
@<TRIPOS>SUBSTRUCTURE
     1 lig         1 TEMP              0 ****  ****    0 ROOT


########## Name:		ligand
########## HA_RMSDs:		16.0735
########## HA_RMSDh:		15.9453
########## HA_RMSDm:		10.8162
########## Cluster Size:	1
##########    Grid Score:           -6.131035
##########      Grid_vdw:           -6.436059
##########       Grid_es:            0.305023
##########    Int_energy:            3.010421

@<TRIPOS>MOLECULE
ligand
 48 51 1 0 0
SMALL
No Charge or Current Charge


@<TRIPOS>ATOM
      1 H1         24.2935   22.9224   35.7293 H       1  lig         0.1670
      2 H2         23.3095   16.0787   29.0789 H       1  lig         0.1473
      3 H3         25.2130   17.2841   29.7818 H       1  lig         0.0559
      4 H4         26.0196   16.0956   30.7783 H       1  lig         0.0575
      5 H5         22.0184   13.7985   32.0804 H       1  lig         0.0688
      6 H6         20.4964   14.6870   32.1106 H       1  lig         0.0740
      7 H7         25.2813   18.9426   31.4726 H       1  lig         0.0477
      8 H8         26.8645   18.1775   31.5366 H       1  lig         0.0465
      9 H9         22.1184   15.3371   33.9278 H       1  lig         0.0495
     10 H10        21.5901   16.6996   32.9392 H       1  lig         0.0527
     11 H11        27.3752   20.1210   33.1204 H       1  lig         0.0459
     12 H12        28.2081   18.6744   33.7279 H       1  lig         0.0459
     13 H13        24.2358   16.1146   35.3716 H       1  lig         0.0438
     14 H14        22.7791   17.0275   35.0997 H       1  lig         0.0425
     15 H15        28.6064   19.6474   35.7276 H       1  lig         0.0681
     16 H16        27.9514   21.1510   35.1931 H       1  lig         0.0571
     17 H17        24.2158   18.0086   36.8838 H       1  lig         0.0423
     18 H18        23.8063   19.0956   35.5868 H       1  lig         0.0489
     19 H19        24.2166   15.2417   32.8726 H       1  lig         0.0634
     20 H20        26.1943   16.8628   33.3909 H       1  lig         0.0564
     21 H21        23.6484   18.0004   33.1872 H       1  lig         0.0555
     22 H22        25.4299   19.4949   33.8811 H       1  lig         0.0551
     23 H23        27.8156   17.5642   36.1541 H       1  lig         0.0433
     24 H24        26.4958   17.0909   37.1903 H       1  lig         0.0424
     25 H25        26.6099   16.4207   35.5675 H       1  lig         0.0357
     26 H26        27.5334   19.1208   37.6697 H       1  lig         0.4072
     27 C1         24.8544   22.0198   35.8397 C.1     1  lig        -0.1335
     28 C2         25.5564   20.9626   35.9763 C.1     1  lig        -0.1688
     29 C3         23.0652   15.9235   30.1232 C.2     1  lig        -0.2674
     30 C4         23.9221   16.2639   31.2241 C.2     1  lig        -0.0292
     31 C5         21.8049   15.2306   30.5008 C.2     1  lig         0.5673
     32 C6         25.2718   16.8919   30.8001 C.3     1  lig        -0.0559
     33 C7         21.5536   14.7728   31.9302 C.3     1  lig        -0.1823
     34 C8         25.8042   18.0208   31.7265 C.3     1  lig        -0.0728
     35 C9         22.1942   15.7876   32.9361 C.3     1  lig        -0.0705
     36 C10        27.4276   19.4018   33.9411 C.3     1  lig        -0.0740
     37 C11        23.8558   17.0556   34.9669 C.3     1  lig        -0.0723
     38 C12        27.7174   20.0990   35.2894 C.3     1  lig        -0.0690
     39 C13        24.4088   18.2200   35.8318 C.3     1  lig        -0.0643
     40 C14        23.6739   16.1529   32.6062 C.3     1  lig        -0.0353
     41 C15        25.5400   17.7228   33.2319 C.3     1  lig        -0.0466
     42 C16        24.2663   17.1421   33.4726 C.3     1  lig        -0.0538
     43 C17        26.1085   18.6761   34.1379 C.3     1  lig        -0.0659
     44 C18        26.5017   19.8273   36.1910 C.3     1  lig         0.2372
     45 C19        25.9043   18.5374   35.6393 C.3     1  lig        -0.0680
     46 C20        26.7627   17.3252   36.1578 C.3     1  lig        -0.0802
     47 O1         21.0527   14.9976   29.6178 O.2     1  lig        -0.5348
     48 O2         26.8681   19.8317   37.5745 O.3     1  lig        -0.5805
@<TRIPOS>BOND
     1    31    47    2
     2    31    33    1
     3    29    31    1
     4    33    35    1
     5     5    33    1
     6     6    33    1
     7    29    30    2
     8     2    29    1
     9    30    32    1
    10    30    40    1
    11    32    34    1
    12     3    32    1
    13     4    32    1
    14    35    40    1
    15    40    42    1
    16    19    40    1
    17     9    35    1
    18    10    35    1
    19    41    42    1
    20    37    42    1
    21    21    42    1
    22    34    41    1
    23    41    43    1
    24    20    41    1
    25     7    34    1
    26     8    34    1
    27    37    39    1
    28    13    37    1
    29    14    37    1
    30    39    45    1
    31    17    39    1
    32    18    39    1
    33    43    45    1
    34    45    46    1
    35    44    45    1
    36    36    43    1
    37    22    43    1
    38    23    46    1
    39    24    46    1
    40    25    46    1
    41    44    48    1
    42    38    44    1
    43    28    44    1
    44    26    48    1
    45    36    38    1
    46    15    38    1
    47    16    38    1
    48    11    36    1
    49    12    36    1
    50    27    28    3
    51     1    27    1
@<TRIPOS>SUBSTRUCTURE
     1 lig         1 TEMP              0 ****  ****    0 ROOT


########## Name:		ligand
########## HA_RMSDs:		18.5563
########## HA_RMSDh:		18.5546
########## HA_RMSDm:		15.0578
########## Cluster Size:	1
##########    Grid Score:           -5.358099
##########      Grid_vdw:           -4.883352
##########       Grid_es:           -0.474748
##########    Int_energy:            3.008575

@<TRIPOS>MOLECULE
ligand
 48 51 1 0 0
SMALL
No Charge or Current Charge


@<TRIPOS>ATOM
      1 H1          5.6428   27.9491   12.8821 H       1  lig         0.1670
      2 H2          7.5778   21.0387    6.5031 H       1  lig         0.1473
      3 H3          6.8748   20.9066    8.7522 H       1  lig         0.0559
      4 H4          5.1830   20.5114    8.5572 H       1  lig         0.0575
      5 H5          4.6873   22.6985    4.3201 H       1  lig         0.0688
      6 H6          5.7487   24.0502    3.9288 H       1  lig         0.0740
      7 H7          6.4190   22.7325   10.1919 H       1  lig         0.0477
      8 H8          5.3242   21.4623   10.7250 H       1  lig         0.0465
      9 H9          4.0391   24.5506    5.7128 H       1  lig         0.0495
     10 H10         5.6984   24.8641    6.2241 H       1  lig         0.0527
     11 H11         4.9113   23.0847   12.6599 H       1  lig         0.0459
     12 H12         3.3699   22.3015   12.2516 H       1  lig         0.0459
     13 H13         2.4707   24.5699    7.8837 H       1  lig         0.0438
     14 H14         3.7452   25.6980    7.5196 H       1  lig         0.0425
     15 H15         2.1948   23.8088   13.4562 H       1  lig         0.0681
     16 H16         3.6364   24.5584   14.0353 H       1  lig         0.0571
     17 H17         2.3064   26.4430    9.4129 H       1  lig         0.0423
     18 H18         4.0082   26.3568    9.7705 H       1  lig         0.0489
     19 H19         3.9161   22.5572    6.9522 H       1  lig         0.0634
     20 H20         3.5336   22.4546    9.5312 H       1  lig         0.0564
     21 H21         5.3226   24.3887    8.5954 H       1  lig         0.0555
     22 H22         4.8245   24.4591   10.9693 H       1  lig         0.0551
     23 H23         1.1377   23.5917   11.4606 H       1  lig         0.0433
     24 H24         0.6622   24.8383   10.3383 H       1  lig         0.0424
     25 H25         1.4957   23.4068    9.7450 H       1  lig         0.0357
     26 H26         1.7945   26.4461   13.5291 H       1  lig         0.4072
     27 C1          4.8714   27.2558   12.6258 C.1     1  lig        -0.1335
     28 C2          3.9425   26.4226   12.3573 C.1     1  lig        -0.1688
     29 C3          6.8129   21.7898    6.3444 C.2     1  lig        -0.2674
     30 C4          5.8021   22.1440    7.3010 C.2     1  lig        -0.0292
     31 C5          6.6969   22.4719    5.0282 C.2     1  lig         0.5673
     32 C6          5.8829   21.3477    8.6258 C.3     1  lig        -0.0559
     33 C7          5.4903   23.3355    4.6904 C.3     1  lig        -0.1823
     34 C8          5.5405   22.1519    9.9110 C.3     1  lig        -0.0728
     35 C9          4.9849   24.0728    5.9761 C.3     1  lig        -0.0705
     36 C10         3.9040   23.2492   12.2701 C.3     1  lig        -0.0740
     37 C11         3.4135   24.9755    8.2584 C.3     1  lig        -0.0723
     38 C12         3.1239   24.2720   13.1265 C.3     1  lig        -0.0690
     39 C13         3.1269   25.7441    9.5762 C.3     1  lig        -0.0643
     40 C14         4.8068   23.1367    7.2105 C.3     1  lig        -0.0353
     41 C15         4.3635   23.1471    9.6887 C.3     1  lig        -0.0466
     42 C16         4.4135   23.8008    8.4288 C.3     1  lig        -0.0538
     43 C17         3.9319   23.8345   10.8694 C.3     1  lig        -0.0659
     44 C18         2.8095   25.4625   12.2055 C.3     1  lig         0.2372
     45 C19         2.8143   24.8649   10.8026 C.3     1  lig        -0.0680
     46 C20         1.4492   24.1181   10.5708 C.3     1  lig        -0.0802
     47 O1          7.5550   22.2456    4.2457 O.2     1  lig        -0.5348
     48 O2          1.6174   26.1390   12.6173 O.3     1  lig        -0.5805
@<TRIPOS>BOND
     1    31    47    2
     2    31    33    1
     3    29    31    1
     4    33    35    1
     5     5    33    1
     6     6    33    1
     7    29    30    2
     8     2    29    1
     9    30    32    1
    10    30    40    1
    11    32    34    1
    12     3    32    1
    13     4    32    1
    14    35    40    1
    15    40    42    1
    16    19    40    1
    17     9    35    1
    18    10    35    1
    19    41    42    1
    20    37    42    1
    21    21    42    1
    22    34    41    1
    23    41    43    1
    24    20    41    1
    25     7    34    1
    26     8    34    1
    27    37    39    1
    28    13    37    1
    29    14    37    1
    30    39    45    1
    31    17    39    1
    32    18    39    1
    33    43    45    1
    34    45    46    1
    35    44    45    1
    36    36    43    1
    37    22    43    1
    38    23    46    1
    39    24    46    1
    40    25    46    1
    41    44    48    1
    42    38    44    1
    43    28    44    1
    44    26    48    1
    45    36    38    1
    46    15    38    1
    47    16    38    1
    48    11    36    1
    49    12    36    1
    50    27    28    3
    51     1    27    1
@<TRIPOS>SUBSTRUCTURE
     1 lig         1 TEMP              0 ****  ****    0 ROOT


########## Name:		ligand
########## HA_RMSDs:		19.9500
########## HA_RMSDh:		19.8335
########## HA_RMSDm:		17.0391
########## Cluster Size:	1
##########    Grid Score:           -5.255466
##########      Grid_vdw:           -4.254400
##########       Grid_es:           -1.001066
##########    Int_energy:            3.010423

@<TRIPOS>MOLECULE
ligand
 48 51 1 0 0
SMALL
No Charge or Current Charge


@<TRIPOS>ATOM
      1 H1          2.5964   17.2834    5.0936 H       1  lig         0.1670
      2 H2          1.9394   26.6201    7.1979 H       1  lig         0.1473
      3 H3          0.7372   24.7646    8.0237 H       1  lig         0.0559
      4 H4          1.4874   24.5414    9.5869 H       1  lig         0.0575
      5 H5          5.7547   26.3089    8.3034 H       1  lig         0.0688
      6 H6          6.2444   26.2120    6.6129 H       1  lig         0.0740
      7 H7          1.0480   22.4990    7.4032 H       1  lig         0.0477
      8 H8          0.5279   22.4322    9.0828 H       1  lig         0.0465
      9 H9          6.2074   23.9965    7.8155 H       1  lig         0.0495
     10 H10         5.2194   24.0176    6.3539 H       1  lig         0.0527
     11 H11         0.3770   19.9255    8.5927 H       1  lig         0.0459
     12 H12         0.9735   20.1332   10.2530 H       1  lig         0.0459
     13 H13         5.5743   21.8118    9.2292 H       1  lig         0.0438
     14 H14         5.8135   21.8948    7.5072 H       1  lig         0.0425
     15 H15         1.6186   17.9715   10.3753 H       1  lig         0.0681
     16 H16         0.9407   17.6200    8.8286 H       1  lig         0.0571
     17 H17         5.7074   19.5546    8.3566 H       1  lig         0.0423
     18 H18         4.5737   19.9305    7.0898 H       1  lig         0.0489
     19 H19         4.3295   24.1480    9.2208 H       1  lig         0.0634
     20 H20         2.7669   22.1411    9.8025 H       1  lig         0.0564
     21 H21         3.5797   22.3783    7.1379 H       1  lig         0.0555
     22 H22         2.3073   20.3871    7.6895 H       1  lig         0.0551
     23 H23         3.3363   19.2182   11.1768 H       1  lig         0.0433
     24 H24         5.0149   19.1902   10.7066 H       1  lig         0.0424
     25 H25         4.1812   20.7320   10.8607 H       1  lig         0.0357
     26 H26         3.2583   16.2918    9.1061 H       1  lig         0.4072
     27 C1          2.7658   17.5919    6.1023 C.1     1  lig        -0.1335
     28 C2          2.9428   17.9337    7.3194 C.1     1  lig        -0.1688
     29 C3          2.8494   26.0484    7.3373 C.2     1  lig        -0.2674
     30 C4          2.9251   24.7792    8.0049 C.2     1  lig        -0.0292
     31 C5          4.1576   26.6092    6.9067 C.2     1  lig         0.5673
     32 C6          1.5645   24.2639    8.5329 C.3     1  lig        -0.0559
     33 C7          5.4695   25.9538    7.3132 C.3     1  lig        -0.1823
     34 C8          1.3441   22.7290    8.4265 C.3     1  lig        -0.0728
     35 C9          5.2924   24.3993    7.3765 C.3     1  lig        -0.0705
     36 C10         1.2292   19.7724    9.2590 C.3     1  lig        -0.0740
     37 C11         5.0858   21.6325    8.2685 C.3     1  lig        -0.0723
     38 C12         1.6326   18.2825    9.3315 C.3     1  lig        -0.0690
     39 C13         4.7959   20.1128    8.1421 C.3     1  lig        -0.0643
     40 C14         4.0417   23.9399    8.1866 C.3     1  lig        -0.0353
     41 C15         2.6394   21.9234    8.7398 C.3     1  lig        -0.0466
     42 C16         3.8116   22.5162    8.1996 C.3     1  lig        -0.0538
     43 C17         2.4665   20.5014    8.7658 C.3     1  lig        -0.0659
     44 C18         3.0668   18.1918    8.7844 C.3     1  lig         0.2372
     45 C19         3.6498   19.5803    9.0237 C.3     1  lig        -0.0680
     46 C20         4.0627   19.6970   10.5373 C.3     1  lig        -0.0802
     47 O1          4.1159   27.6226    6.2976 O.2     1  lig        -0.5348
     48 O2          3.7730   17.0855    9.3553 O.3     1  lig        -0.5805
@<TRIPOS>BOND
     1    31    47    2
     2    31    33    1
     3    29    31    1
     4    33    35    1
     5     5    33    1
     6     6    33    1
     7    29    30    2
     8     2    29    1
     9    30    32    1
    10    30    40    1
    11    32    34    1
    12     3    32    1
    13     4    32    1
    14    35    40    1
    15    40    42    1
    16    19    40    1
    17     9    35    1
    18    10    35    1
    19    41    42    1
    20    37    42    1
    21    21    42    1
    22    34    41    1
    23    41    43    1
    24    20    41    1
    25     7    34    1
    26     8    34    1
    27    37    39    1
    28    13    37    1
    29    14    37    1
    30    39    45    1
    31    17    39    1
    32    18    39    1
    33    43    45    1
    34    45    46    1
    35    44    45    1
    36    36    43    1
    37    22    43    1
    38    23    46    1
    39    24    46    1
    40    25    46    1
    41    44    48    1
    42    38    44    1
    43    28    44    1
    44    26    48    1
    45    36    38    1
    46    15    38    1
    47    16    38    1
    48    11    36    1
    49    12    36    1
    50    27    28    3
    51     1    27    1
@<TRIPOS>SUBSTRUCTURE
     1 lig         1 TEMP              0 ****  ****    0 ROOT


########## Name:		ligand
########## HA_RMSDs:		17.4315
########## HA_RMSDh:		17.2757
########## HA_RMSDm:		10.2288
########## Cluster Size:	1
##########    Grid Score:           -5.236369
##########      Grid_vdw:           -5.097939
##########       Grid_es:           -0.138429
##########    Int_energy:            3.010434

@<TRIPOS>MOLECULE
ligand
 48 51 1 0 0
SMALL
No Charge or Current Charge


@<TRIPOS>ATOM
      1 H1         20.8247   23.7722   32.5521 H       1  lig         0.1670
      2 H2         11.5961   26.3922   32.5237 H       1  lig         0.1473
      3 H3         12.5980   24.2707   32.2673 H       1  lig         0.0559
      4 H4         12.3166   23.5688   33.8435 H       1  lig         0.0575
      5 H5         12.3018   27.7401   36.2062 H       1  lig         0.0688
      6 H6         13.2080   29.0988   35.5433 H       1  lig         0.0740
      7 H7         14.9187   23.7961   32.3235 H       1  lig         0.0477
      8 H8         14.1536   22.3496   32.9705 H       1  lig         0.0465
      9 H9         14.6415   27.2383   36.4594 H       1  lig         0.0495
     10 H10        15.0021   27.6390   34.7795 H       1  lig         0.0527
     11 H11        16.5233   21.4057   32.7702 H       1  lig         0.0459
     12 H12        15.7872   20.7527   34.2492 H       1  lig         0.0459
     13 H13        15.8200   24.9047   37.0407 H       1  lig         0.0438
     14 H14        16.5227   26.2229   36.1475 H       1  lig         0.0425
     15 H15        17.7847   20.0303   35.0185 H       1  lig         0.0681
     16 H16        18.5806   20.4929   33.5597 H       1  lig         0.0571
     17 H17        18.1971   24.4971   36.8012 H       1  lig         0.0423
     18 H18        18.1307   24.8510   35.0977 H       1  lig         0.0489
     19 H19        13.4811   25.2840   35.8605 H       1  lig         0.0634
     20 H20        14.6333   23.0425   35.1854 H       1  lig         0.0564
     21 H21        15.7290   25.3918   34.1377 H       1  lig         0.0555
     22 H22        16.9481   23.3469   33.6681 H       1  lig         0.0551
     23 H23        16.7582   21.0890   36.7426 H       1  lig         0.0433
     24 H24        17.3727   22.3664   37.7577 H       1  lig         0.0424
     25 H25        15.7596   22.5039   37.0687 H       1  lig         0.0357
     26 H26        18.9468   20.9908   36.7295 H       1  lig         0.4072
     27 C1         20.1722   23.3487   33.2844 C.1     1  lig        -0.1335
     28 C2         19.4052   22.8074   34.1493 C.1     1  lig        -0.1688
     29 C3         12.2530   26.5617   33.3687 C.2     1  lig        -0.2674
     30 C4         13.1059   25.5665   33.9556 C.2     1  lig        -0.0292
     31 C5         12.2473   27.8739   34.0683 C.2     1  lig         0.5673
     32 C6         13.0186   24.1806   33.2719 C.3     1  lig        -0.0559
     33 C7         12.9603   28.0617   35.3995 C.3     1  lig        -0.1823
     34 C8         14.3587   23.3998   33.1703 C.3     1  lig        -0.0728
     35 C9         14.2569   27.1846   35.4390 C.3     1  lig        -0.0705
     36 C10        16.5791   21.3898   33.8612 C.3     1  lig        -0.0740
     37 C11        16.2643   25.1712   36.0787 C.3     1  lig        -0.0723
     38 C12        17.9512   20.8757   34.3521 C.3     1  lig        -0.0690
     39 C13        17.5831   24.3702   35.9093 C.3     1  lig        -0.0643
     40 C14        14.0284   25.7025   35.0114 C.3     1  lig        -0.0353
     41 C15        15.2386   23.5690   34.4440 C.3     1  lig        -0.0466
     42 C16        15.2188   24.8894   34.9667 C.3     1  lig        -0.0538
     43 C17        16.4353   22.7813   34.4518 C.3     1  lig        -0.0659
     44 C18        18.5956   22.0318   35.1348 C.3     1  lig         0.2372
     45 C19        17.4134   22.8673   35.6141 C.3     1  lig        -0.0680
     46 C20        16.7754   22.1614   36.8670 C.3     1  lig        -0.0802
     47 O1         11.6025   28.7298   33.5668 O.2     1  lig        -0.5348
     48 O2         19.4937   21.5451   36.1374 O.3     1  lig        -0.5805
@<TRIPOS>BOND
     1    31    47    2
     2    31    33    1
     3    29    31    1
     4    33    35    1
     5     5    33    1
     6     6    33    1
     7    29    30    2
     8     2    29    1
     9    30    32    1
    10    30    40    1
    11    32    34    1
    12     3    32    1
    13     4    32    1
    14    35    40    1
    15    40    42    1
    16    19    40    1
    17     9    35    1
    18    10    35    1
    19    41    42    1
    20    37    42    1
    21    21    42    1
    22    34    41    1
    23    41    43    1
    24    20    41    1
    25     7    34    1
    26     8    34    1
    27    37    39    1
    28    13    37    1
    29    14    37    1
    30    39    45    1
    31    17    39    1
    32    18    39    1
    33    43    45    1
    34    45    46    1
    35    44    45    1
    36    36    43    1
    37    22    43    1
    38    23    46    1
    39    24    46    1
    40    25    46    1
    41    44    48    1
    42    38    44    1
    43    28    44    1
    44    26    48    1
    45    36    38    1
    46    15    38    1
    47    16    38    1
    48    11    36    1
    49    12    36    1
    50    27    28    3
    51     1    27    1
@<TRIPOS>SUBSTRUCTURE
     1 lig         1 TEMP              0 ****  ****    0 ROOT


########## Name:		ligand
########## HA_RMSDs:		19.8821
########## HA_RMSDh:		19.8054
########## HA_RMSDm:		16.8627
########## Cluster Size:	1
##########    Grid Score:           -4.575078
##########      Grid_vdw:           -4.414190
##########       Grid_es:           -0.160888
##########    Int_energy:            3.019546

@<TRIPOS>MOLECULE
ligand
 48 51 1 0 0
SMALL
No Charge or Current Charge


@<TRIPOS>ATOM
      1 H1          1.0912   21.0574   11.6697 H       1  lig         0.1670
      2 H2          2.0921   25.9415    3.5139 H       1  lig         0.1473
      3 H3          2.2558   26.6367    5.7634 H       1  lig         0.0559
      4 H4          3.9890   26.7590    5.9565 H       1  lig         0.0575
      5 H5          5.0499   23.3962    2.7088 H       1  lig         0.0688
      6 H6          3.8755   22.1221    2.3857 H       1  lig         0.0740
      7 H7          2.0054   25.2662    7.6800 H       1  lig         0.0477
      8 H8          3.1628   26.5000    8.1642 H       1  lig         0.0465
      9 H9          4.9891   21.9646    4.6420 H       1  lig         0.0495
     10 H10         3.2275   22.0079    4.7309 H       1  lig         0.0527
     11 H11         2.7930   25.4712   10.4774 H       1  lig         0.0459
     12 H12         4.5064   25.9177   10.3342 H       1  lig         0.0459
     13 H13         5.9675   22.3928    7.0980 H       1  lig         0.0438
     14 H14         4.6259   21.3638    6.6851 H       1  lig         0.0425
     15 H15         5.0575   24.6980   12.1543 H       1  lig         0.0681
     16 H16         3.4051   24.3213   12.4754 H       1  lig         0.0571
     17 H17         5.4094   21.0371    9.0279 H       1  lig         0.0423
     18 H18         3.7190   21.4205    8.8632 H       1  lig         0.0489
     19 H19         5.1897   24.2032    5.3302 H       1  lig         0.0634
     20 H20         4.9643   25.0032    7.8034 H       1  lig         0.0564
     21 H21         3.1151   23.1028    6.9170 H       1  lig         0.0555
     22 H22         3.0158   23.6656    9.2754 H       1  lig         0.0551
     23 H23         6.5776   24.2032   10.5445 H       1  lig         0.0433
     24 H24         7.0607   22.6385    9.9463 H       1  lig         0.0424
     25 H25         6.6766   23.9236    8.8074 H       1  lig         0.0357
     26 H26         4.9242   22.1670   12.9894 H       1  lig         0.4072
     27 C1          2.0353   21.5225   11.4855 C.1     1  lig        -0.1335
     28 C2          3.1580   22.0997   11.2971 C.1     1  lig        -0.1688
     29 C3          2.7170   25.0931    3.7671 C.2     1  lig        -0.2674
     30 C4          3.3876   24.9161    5.0245 C.2     1  lig        -0.0292
     31 C5          3.0097   24.0503    2.7482 C.2     1  lig         0.5673
     32 C6          3.1478   26.0658    6.0327 C.3     1  lig        -0.0559
     33 C7          4.0767   22.9916    2.9865 C.3     1  lig        -0.1823
     34 C8          3.0188   25.6342    7.5203 C.3     1  lig        -0.0728
     35 C9          4.1155   22.6049    4.5033 C.3     1  lig        -0.0705
     36 C10         3.8141   25.0848   10.4380 C.3     1  lig        -0.0740
     37 C11         4.9038   22.2256    7.2832 C.3     1  lig        -0.0723
     38 C12         4.1624   24.2705   11.7044 C.3     1  lig        -0.0690
     39 C13         4.7205   21.8439    8.7766 C.3     1  lig        -0.0643
     40 C14         4.1703   23.8310    5.4651 C.3     1  lig        -0.0353
     41 C15         4.0054   24.4875    7.8901 C.3     1  lig        -0.0466
     42 C16         4.1320   23.5073    6.8701 C.3     1  lig        -0.0538
     43 C17         4.0081   24.1262    9.2766 C.3     1  lig        -0.0659
     44 C18         4.4550   22.8362   11.2339 C.3     1  lig         0.2372
     45 C19         4.8946   22.9980    9.7827 C.3     1  lig        -0.0680
     46 C20         6.3916   23.4817    9.7631 C.3     1  lig        -0.0802
     47 O1          2.4194   24.1384    1.7267 O.2     1  lig        -0.5348
     48 O2          5.3663   22.1741   12.1168 O.3     1  lig        -0.5805
@<TRIPOS>BOND
     1    31    47    2
     2    31    33    1
     3    29    31    1
     4    33    35    1
     5     5    33    1
     6     6    33    1
     7    29    30    2
     8     2    29    1
     9    30    32    1
    10    30    40    1
    11    32    34    1
    12     3    32    1
    13     4    32    1
    14    35    40    1
    15    40    42    1
    16    19    40    1
    17     9    35    1
    18    10    35    1
    19    41    42    1
    20    37    42    1
    21    21    42    1
    22    34    41    1
    23    41    43    1
    24    20    41    1
    25     7    34    1
    26     8    34    1
    27    37    39    1
    28    13    37    1
    29    14    37    1
    30    39    45    1
    31    17    39    1
    32    18    39    1
    33    43    45    1
    34    45    46    1
    35    44    45    1
    36    36    43    1
    37    22    43    1
    38    23    46    1
    39    24    46    1
    40    25    46    1
    41    44    48    1
    42    38    44    1
    43    28    44    1
    44    26    48    1
    45    36    38    1
    46    15    38    1
    47    16    38    1
    48    11    36    1
    49    12    36    1
    50    27    28    3
    51     1    27    1
@<TRIPOS>SUBSTRUCTURE
     1 lig         1 TEMP              0 ****  ****    0 ROOT


########## Name:		ligand
########## HA_RMSDs:		20.5001
########## HA_RMSDh:		20.4957
########## HA_RMSDm:		16.8609
########## Cluster Size:	1
##########    Grid Score:           -4.561763
##########      Grid_vdw:           -3.917603
##########       Grid_es:           -0.644159
##########    Int_energy:            3.187491

@<TRIPOS>MOLECULE
ligand
 48 51 1 0 0
SMALL
No Charge or Current Charge


@<TRIPOS>ATOM
      1 H1          7.1207   23.1151    7.2679 H       1  lig         0.1670
      2 H2          5.2040   14.8925    3.0817 H       1  lig         0.1473
      3 H3          5.3736   15.3498    5.3909 H       1  lig         0.0559
      4 H4          3.6877   15.4450    5.8437 H       1  lig         0.0575
      5 H5          2.1468   16.9444    1.5589 H       1  lig         0.0688
      6 H6          3.2546   17.8377    0.5190 H       1  lig         0.0740
      7 H7          5.8932   17.4417    6.3751 H       1  lig         0.0477
      8 H8          4.8254   16.6585    7.5338 H       1  lig         0.0465
      9 H9          2.4809   19.1099    2.5534 H       1  lig         0.0495
     10 H10         4.2368   19.0000    2.4210 H       1  lig         0.0527
     11 H11         5.5228   18.6285    9.0099 H       1  lig         0.0459
     12 H12         3.8092   18.2788    9.3214 H       1  lig         0.0459
     13 H13         1.8732   19.9520    5.0220 H       1  lig         0.0438
     14 H14         3.1348   20.5767    3.9985 H       1  lig         0.0425
     15 H15         3.5228   20.2442   10.3981 H       1  lig         0.0681
     16 H16         5.2023   20.6202   10.2825 H       1  lig         0.0571
     17 H17         2.6993   22.0172    5.9846 H       1  lig         0.0423
     18 H18         4.3497   21.4932    5.8023 H       1  lig         0.0489
     19 H19         2.3948   17.4768    4.2417 H       1  lig         0.0634
     20 H20         2.9825   17.9221    6.7446 H       1  lig         0.0564
     21 H21         4.6725   19.0581    4.8287 H       1  lig         0.0555
     22 H22         5.1175   19.6662    7.1353 H       1  lig         0.0551
     23 H23         1.7817   20.0201    8.9609 H       1  lig         0.0433
     24 H24         1.2081   21.1467    7.7604 H       1  lig         0.0424
     25 H25         1.4290   19.4552    7.3294 H       1  lig         0.0357
     26 H26         2.3925   22.0377    9.5577 H       1  lig         0.4072
     27 C1          6.2849   22.5971    7.6859 C.1     1  lig        -0.1335
     28 C2          5.2630   22.0047    8.1696 C.1     1  lig        -0.1688
     29 C3          4.6181   15.7986    2.9807 C.2     1  lig        -0.2674
     30 C4          4.1369   16.5893    4.0786 C.2     1  lig        -0.0292
     31 C5          4.1744   16.2557    1.6371 C.2     1  lig         0.5673
     32 C6          4.5273   16.0366    5.4707 C.3     1  lig        -0.0559
     33 C7          3.1478   17.3683    1.4811 C.3     1  lig        -0.1823
     34 C8          4.8694   17.1081    6.5434 C.3     1  lig        -0.0728
     35 C9          3.3284   18.4249    2.6226 C.3     1  lig        -0.0705
     36 C10         4.5048   19.0159    8.9256 C.3     1  lig        -0.0740
     37 C11         2.9516   20.1177    4.9647 C.3     1  lig        -0.0723
     38 C12         4.3404   20.3508    9.6864 C.3     1  lig        -0.0690
     39 C13         3.3485   21.1445    6.0590 C.3     1  lig        -0.0643
     40 C14         3.4210   17.8020    4.0491 C.3     1  lig        -0.0353
     41 C15         3.9411   18.3548    6.4496 C.3     1  lig        -0.0466
     42 C16         3.6619   18.7456    5.1130 C.3     1  lig        -0.0538
     43 C17         4.1385   19.3254    7.4849 C.3     1  lig        -0.0659
     44 C18         3.9747   21.4106    8.6340 C.3     1  lig         0.2372
     45 C19         3.3291   20.6136    7.5055 C.3     1  lig        -0.0680
     46 C20         1.8479   20.2754    7.9139 C.3     1  lig        -0.0802
     47 O1          4.6100   15.6593    0.7128 O.2     1  lig        -0.5348
     48 O2          3.1982   22.4675    9.2071 O.3     1  lig        -0.5805
@<TRIPOS>BOND
     1    31    47    2
     2    31    33    1
     3    29    31    1
     4    33    35    1
     5     5    33    1
     6     6    33    1
     7    29    30    2
     8     2    29    1
     9    30    32    1
    10    30    40    1
    11    32    34    1
    12     3    32    1
    13     4    32    1
    14    35    40    1
    15    40    42    1
    16    19    40    1
    17     9    35    1
    18    10    35    1
    19    41    42    1
    20    37    42    1
    21    21    42    1
    22    34    41    1
    23    41    43    1
    24    20    41    1
    25     7    34    1
    26     8    34    1
    27    37    39    1
    28    13    37    1
    29    14    37    1
    30    39    45    1
    31    17    39    1
    32    18    39    1
    33    43    45    1
    34    45    46    1
    35    44    45    1
    36    36    43    1
    37    22    43    1
    38    23    46    1
    39    24    46    1
    40    25    46    1
    41    44    48    1
    42    38    44    1
    43    28    44    1
    44    26    48    1
    45    36    38    1
    46    15    38    1
    47    16    38    1
    48    11    36    1
    49    12    36    1
    50    27    28    3
    51     1    27    1
@<TRIPOS>SUBSTRUCTURE
     1 lig         1 TEMP              0 ****  ****    0 ROOT


########## Name:		ligand
########## HA_RMSDs:		16.8646
########## HA_RMSDh:		16.5323
########## HA_RMSDm:		9.2099
########## Cluster Size:	1
##########    Grid Score:           -4.462631
##########      Grid_vdw:           -4.291439
##########       Grid_es:           -0.171192
##########    Int_energy:            3.188680

@<TRIPOS>MOLECULE
ligand
 48 51 1 0 0
SMALL
No Charge or Current Charge


@<TRIPOS>ATOM
      1 H1         25.7819   19.1349   29.1426 H       1  lig         0.1670
      2 H2         27.7740   15.0826   37.4123 H       1  lig         0.1473
      3 H3         26.6740   17.1335   37.0197 H       1  lig         0.0559
      4 H4         25.0044   16.6766   37.2650 H       1  lig         0.0575
      5 H5         25.5778   12.1099   35.9240 H       1  lig         0.0688
      6 H6         26.8719   11.7082   34.7968 H       1  lig         0.0740
      7 H7         26.2345   18.1108   34.9064 H       1  lig         0.0477
      8 H8         24.8944   18.6283   35.9225 H       1  lig         0.0465
      9 H9         24.9629   12.9988   33.7741 H       1  lig         0.0495
     10 H10        26.5335   13.7684   33.5422 H       1  lig         0.0527
     11 H11        24.3806   20.1271   33.9136 H       1  lig         0.0459
     12 H12        22.8403   19.5625   34.5951 H       1  lig         0.0459
     13 H13        23.0552   14.7748   33.1584 H       1  lig         0.0438
     14 H14        24.5204   14.4811   32.2660 H       1  lig         0.0425
     15 H15        21.6965   20.2251   32.7631 H       1  lig         0.0681
     16 H16        23.1048   20.9403   32.0697 H       1  lig         0.0571
     17 H17        22.8905   15.8883   31.0120 H       1  lig         0.0423
     18 H18        24.4731   16.5883   31.2044 H       1  lig         0.0489
     19 H19        24.3427   14.5180   35.4571 H       1  lig         0.0634
     20 H20        23.5009   16.9457   35.0040 H       1  lig         0.0564
     21 H21        25.6822   16.0626   33.4943 H       1  lig         0.0555
     22 H22        24.7885   18.2393   32.9013 H       1  lig         0.0551
     23 H23        20.9878   18.1280   33.2597 H       1  lig         0.0433
     24 H24        20.8988   16.7328   32.2180 H       1  lig         0.0424
     25 H25        21.6127   16.5780   33.8187 H       1  lig         0.0357
     26 H26        20.8336   18.8208   31.1871 H       1  lig         0.4072
     27 C1         24.9605   19.1119   29.8254 C.1     1  lig        -0.1335
     28 C2         23.9624   19.0575   30.6192 C.1     1  lig        -0.1688
     29 C3         27.1630   14.6454   36.6313 C.2     1  lig        -0.2674
     30 C4         26.0599   15.3035   35.9894 C.2     1  lig        -0.0292
     31 C5         27.3786   13.2339   36.2161 C.2     1  lig         0.5673
     32 C6         25.7924   16.7362   36.5104 C.3     1  lig        -0.0559
     33 C7         26.3849   12.5159   35.3144 C.3     1  lig        -0.1823
     34 C8         25.3461   17.7661   35.4352 C.3     1  lig        -0.0728
     35 C9         25.7703   13.5253   34.2872 C.3     1  lig        -0.0705
     36 C10        23.4914   19.5212   33.7244 C.3     1  lig        -0.0740
     37 C11        23.9649   15.2534   32.7881 C.3     1  lig        -0.0723
     38 C12        22.7252   20.0119   32.4754 C.3     1  lig        -0.0690
     39 C13        23.5622   16.3321   31.7471 C.3     1  lig        -0.0643
     40 C14        25.2468   14.8435   34.9351 C.3     1  lig        -0.0353
     41 C15        24.3795   17.1423   34.3856 C.3     1  lig        -0.0466
     42 C16        24.7428   15.8233   34.0044 C.3     1  lig        -0.0538
     43 C17        23.8482   18.0739   33.4355 C.3     1  lig        -0.0659
     44 C18        22.7497   18.8528   31.4653 C.3     1  lig         0.2372
     45 C19        22.9171   17.6058   32.3269 C.3     1  lig        -0.0680
     46 C20        21.5225   17.2403   32.9566 C.3     1  lig        -0.0802
     47 O1         28.3204   12.6906   36.6827 O.2     1  lig        -0.5348
     48 O2         21.6115   18.8931   30.5985 O.3     1  lig        -0.5805
@<TRIPOS>BOND
     1    31    47    2
     2    31    33    1
     3    29    31    1
     4    33    35    1
     5     5    33    1
     6     6    33    1
     7    29    30    2
     8     2    29    1
     9    30    32    1
    10    30    40    1
    11    32    34    1
    12     3    32    1
    13     4    32    1
    14    35    40    1
    15    40    42    1
    16    19    40    1
    17     9    35    1
    18    10    35    1
    19    41    42    1
    20    37    42    1
    21    21    42    1
    22    34    41    1
    23    41    43    1
    24    20    41    1
    25     7    34    1
    26     8    34    1
    27    37    39    1
    28    13    37    1
    29    14    37    1
    30    39    45    1
    31    17    39    1
    32    18    39    1
    33    43    45    1
    34    45    46    1
    35    44    45    1
    36    36    43    1
    37    22    43    1
    38    23    46    1
    39    24    46    1
    40    25    46    1
    41    44    48    1
    42    38    44    1
    43    28    44    1
    44    26    48    1
    45    36    38    1
    46    15    38    1
    47    16    38    1
    48    11    36    1
    49    12    36    1
    50    27    28    3
    51     1    27    1
@<TRIPOS>SUBSTRUCTURE
     1 lig         1 TEMP              0 ****  ****    0 ROOT


########## Name:		ligand
########## HA_RMSDs:		16.5044
########## HA_RMSDh:		16.3673
########## HA_RMSDm:		9.4767
########## Cluster Size:	1
##########    Grid Score:           -4.435235
##########      Grid_vdw:           -4.612718
##########       Grid_es:            0.177483
##########    Int_energy:            3.194091

@<TRIPOS>MOLECULE
ligand
 48 51 1 0 0
SMALL
No Charge or Current Charge


@<TRIPOS>ATOM
      1 H1         18.5010   21.0465   32.3205 H       1  lig         0.1670
      2 H2         26.8702   20.8034   36.6241 H       1  lig         0.1473
      3 H3         24.7381   20.4127   37.5577 H       1  lig         0.0559
      4 H4         24.7148   18.6663   37.6340 H       1  lig         0.0575
      5 H5         27.6395   18.0057   33.8935 H       1  lig         0.0688
      6 H6         27.7097   19.2403   32.6374 H       1  lig         0.0740
      7 H7         22.6632   20.5229   36.4189 H       1  lig         0.0477
      8 H8         22.4275   19.2914   37.6534 H       1  lig         0.0465
      9 H9         25.5581   17.9275   32.6886 H       1  lig         0.0495
     10 H10        25.3185   19.6713   32.8091 H       1  lig         0.0527
     11 H11        19.9884   19.4742   36.9025 H       1  lig         0.0459
     12 H12        20.3332   17.7695   37.2642 H       1  lig         0.0459
     13 H13        23.2636   16.7141   33.3487 H       1  lig         0.0438
     14 H14        23.4357   18.1167   32.3325 H       1  lig         0.0425
     15 H15        18.4422   17.0868   36.2337 H       1  lig         0.0681
     16 H16        17.9347   18.7124   35.9587 H       1  lig         0.0571
     17 H17        21.1498   17.1291   32.2379 H       1  lig         0.0423
     18 H18        21.2063   18.8161   32.6652 H       1  lig         0.0489
     19 H19        25.1500   17.6011   34.9803 H       1  lig         0.0634
     20 H20        22.7739   17.5739   36.0578 H       1  lig         0.0564
     21 H21        23.2701   19.5499   34.1431 H       1  lig         0.0555
     22 H22        20.9919   19.4146   34.9675 H       1  lig         0.0551
     23 H23        20.1137   15.7369   35.5055 H       1  lig         0.0433
     24 H24        20.5703   15.3555   33.8667 H       1  lig         0.0424
     25 H25        21.8095   15.8070   35.0312 H       1  lig         0.0357
     26 H26        17.3155   17.2134   33.8180 H       1  lig         0.4072
     27 C1         18.6469   20.1829   32.9323 C.1     1  lig        -0.1335
     28 C2         18.8255   19.1299   33.6313 C.1     1  lig        -0.1688
     29 C3         26.5785   20.1819   35.7856 C.2     1  lig        -0.2674
     30 C4         25.3737   19.4030   35.7236 C.2     1  lig        -0.0292
     31 C5         27.4938   20.0142   34.6257 C.2     1  lig         0.5673
     32 C6         24.4857   19.5159   36.9863 C.3     1  lig        -0.0559
     33 C7         27.2322   18.9600   33.5598 C.3     1  lig        -0.1823
     34 C8         22.9531   19.5188   36.7277 C.3     1  lig        -0.0728
     35 C9         25.6906   18.7918   33.3425 C.3     1  lig        -0.0705
     36 C10        20.0741   18.4724   36.4752 C.3     1  lig        -0.0740
     37 C11        22.9667   17.7604   33.2440 C.3     1  lig        -0.0723
     38 C12        18.7591   18.0315   35.7937 C.3     1  lig        -0.0690
     39 C13        21.4292   17.8153   33.0376 C.3     1  lig        -0.0643
     40 C14        24.8835   18.6137   34.6648 C.3     1  lig        -0.0353
     41 C15        22.5442   18.5348   35.5921 C.3     1  lig        -0.0466
     42 C16        23.4530   18.5308   34.5007 C.3     1  lig        -0.0538
     43 C17        21.1313   18.4139   35.3870 C.3     1  lig        -0.0659
     44 C18        19.0872   17.8241   34.3058 C.3     1  lig         0.2372
     45 C19        20.5807   17.5164   34.2887 C.3     1  lig        -0.0680
     46 C20        20.7881   16.0147   34.7094 C.3     1  lig        -0.0802
     47 O1         28.4622   20.6939   34.6226 O.2     1  lig        -0.5348
     48 O2         18.2190   16.8540   33.7113 O.3     1  lig        -0.5805
@<TRIPOS>BOND
     1    31    47    2
     2    31    33    1
     3    29    31    1
     4    33    35    1
     5     5    33    1
     6     6    33    1
     7    29    30    2
     8     2    29    1
     9    30    32    1
    10    30    40    1
    11    32    34    1
    12     3    32    1
    13     4    32    1
    14    35    40    1
    15    40    42    1
    16    19    40    1
    17     9    35    1
    18    10    35    1
    19    41    42    1
    20    37    42    1
    21    21    42    1
    22    34    41    1
    23    41    43    1
    24    20    41    1
    25     7    34    1
    26     8    34    1
    27    37    39    1
    28    13    37    1
    29    14    37    1
    30    39    45    1
    31    17    39    1
    32    18    39    1
    33    43    45    1
    34    45    46    1
    35    44    45    1
    36    36    43    1
    37    22    43    1
    38    23    46    1
    39    24    46    1
    40    25    46    1
    41    44    48    1
    42    38    44    1
    43    28    44    1
    44    26    48    1
    45    36    38    1
    46    15    38    1
    47    16    38    1
    48    11    36    1
    49    12    36    1
    50    27    28    3
    51     1    27    1
@<TRIPOS>SUBSTRUCTURE
     1 lig         1 TEMP              0 ****  ****    0 ROOT


########## Name:		ligand
########## HA_RMSDs:		19.9656
########## HA_RMSDh:		19.6500
########## HA_RMSDm:		16.6298
########## Cluster Size:	1
##########    Grid Score:           -4.156353
##########      Grid_vdw:           -4.090786
##########       Grid_es:           -0.065568
##########    Int_energy:            3.010428

@<TRIPOS>MOLECULE
ligand
 48 51 1 0 0
SMALL
No Charge or Current Charge


@<TRIPOS>ATOM
      1 H1          6.3811   21.4885    7.2550 H       1  lig         0.1670
      2 H2          5.5441   29.5012   12.4635 H       1  lig         0.1473
      3 H3          5.0696   29.0831   10.1896 H       1  lig         0.0559
      4 H4          3.3254   28.9693   10.2213 H       1  lig         0.0575
      5 H5          3.0523   27.3790   14.7356 H       1  lig         0.0688
      6 H6          4.4148   26.4864   15.4091 H       1  lig         0.0740
      7 H7          5.3166   27.0153    9.0594 H       1  lig         0.0477
      8 H8          3.9607   27.8003    8.2584 H       1  lig         0.0465
      9 H9          3.1191   25.2348   13.6455 H       1  lig         0.0495
     10 H10         4.8413   25.3695   13.2869 H       1  lig         0.0527
     11 H11         4.2404   25.8647    6.6086 H       1  lig         0.0459
     12 H12         2.5043   26.1930    6.7924 H       1  lig         0.0459
     13 H13         1.8575   24.4226   11.4271 H       1  lig         0.0438
     14 H14         3.3604   23.8013   12.0474 H       1  lig         0.0425
     15 H15         1.9500   24.2407    5.7997 H       1  lig         0.0681
     16 H16         3.5992   23.8887    5.4368 H       1  lig         0.0571
     17 H17         2.4047   22.3858   10.2328 H       1  lig         0.0423
     18 H18         4.0352   22.9321    9.9596 H       1  lig         0.0489
     19 H19         2.5500   26.8928   12.0796 H       1  lig         0.0634
     20 H20         2.4231   26.4962    9.5039 H       1  lig         0.0564
     21 H21         4.5909   25.3562   10.8523 H       1  lig         0.0555
     22 H22         4.3831   24.7915    8.5015 H       1  lig         0.0551
     23 H23         0.6750   24.4154    7.6681 H       1  lig         0.0433
     24 H24         0.4696   23.2613    8.9587 H       1  lig         0.0424
     25 H25         0.7842   24.9490    9.3440 H       1  lig         0.0357
     26 H26         2.0280   21.3626    7.7367 H       1  lig         0.4072
     27 C1          5.4160   21.9372    7.3487 C.1     1  lig        -0.1335
     28 C2          4.2594   22.4721    7.4222 C.1     1  lig        -0.1688
     29 C3          5.0188   28.5848   12.7056 C.2     1  lig        -0.2674
     30 C4          4.2595   27.8043   11.7695 C.2     1  lig        -0.0292
     31 C5          4.9710   28.0998   14.1105 C.2     1  lig         0.5673
     32 C6          4.2416   28.3848   10.3348 C.3     1  lig        -0.0559
     33 C7          4.0398   26.9693   14.5238 C.3     1  lig        -0.1823
     34 C8          4.2830   27.3358    9.1886 C.3     1  lig        -0.0728
     35 C9          3.9068   25.9337   13.3569 C.3     1  lig        -0.0705
     36 C10         3.2900   25.4605    6.9649 C.3     1  lig        -0.0740
     37 C11         2.9110   24.2726   11.1792 C.3     1  lig        -0.0723
     38 C12         2.9344   24.1353    6.2539 C.3     1  lig        -0.0690
     39 C13         2.9985   23.2694    9.9980 C.3     1  lig        -0.0643
     40 C14         3.5925   26.5804   11.9732 C.3     1  lig        -0.0353
     41 C15         3.4303   26.0736    9.5124 C.3     1  lig        -0.0466
     42 C16         3.5378   25.6576   10.8661 C.3     1  lig        -0.0538
     43 C17         3.3420   25.1227    8.4444 C.3     1  lig        -0.0659
     44 C18         2.8867   23.0537    7.3458 C.3     1  lig         0.2372
     45 C19         2.5722   23.8227    8.6244 C.3     1  lig        -0.0680
     46 C20         1.0324   24.1446    8.6503 C.3     1  lig        -0.0802
     47 O1          5.6403   28.6881   14.8888 O.2     1  lig        -0.5348
     48 O2          1.9924   21.9941    6.9906 O.3     1  lig        -0.5805
@<TRIPOS>BOND
     1    31    47    2
     2    31    33    1
     3    29    31    1
     4    33    35    1
     5     5    33    1
     6     6    33    1
     7    29    30    2
     8     2    29    1
     9    30    32    1
    10    30    40    1
    11    32    34    1
    12     3    32    1
    13     4    32    1
    14    35    40    1
    15    40    42    1
    16    19    40    1
    17     9    35    1
    18    10    35    1
    19    41    42    1
    20    37    42    1
    21    21    42    1
    22    34    41    1
    23    41    43    1
    24    20    41    1
    25     7    34    1
    26     8    34    1
    27    37    39    1
    28    13    37    1
    29    14    37    1
    30    39    45    1
    31    17    39    1
    32    18    39    1
    33    43    45    1
    34    45    46    1
    35    44    45    1
    36    36    43    1
    37    22    43    1
    38    23    46    1
    39    24    46    1
    40    25    46    1
    41    44    48    1
    42    38    44    1
    43    28    44    1
    44    26    48    1
    45    36    38    1
    46    15    38    1
    47    16    38    1
    48    11    36    1
    49    12    36    1
    50    27    28    3
    51     1    27    1
@<TRIPOS>SUBSTRUCTURE
     1 lig         1 TEMP              0 ****  ****    0 ROOT


########## Name:		ligand
########## HA_RMSDs:		16.0898
########## HA_RMSDh:		15.7884
########## HA_RMSDm:		7.2767
########## Cluster Size:	2
##########    Grid Score:           -3.518852
##########      Grid_vdw:           -3.152880
##########       Grid_es:           -0.365972
##########    Int_energy:            3.185334

@<TRIPOS>MOLECULE
ligand
 48 51 1 0 0
SMALL
No Charge or Current Charge


@<TRIPOS>ATOM
      1 H1         17.9211   23.4862   29.4657 H       1  lig         0.1670
      2 H2         21.6532   19.5948   37.1987 H       1  lig         0.1473
      3 H3         20.2495   21.4862   37.0486 H       1  lig         0.0559
      4 H4         18.7099   20.8057   37.5205 H       1  lig         0.0575
      5 H5         19.6623   16.3803   35.9422 H       1  lig         0.0688
      6 H6         20.8122   16.1748   34.6223 H       1  lig         0.0740
      7 H7         19.3725   22.4316   35.0607 H       1  lig         0.0477
      8 H8         18.1456   22.7475   36.2818 H       1  lig         0.0465
      9 H9         18.6193   17.2153   33.9408 H       1  lig         0.0495
     10 H10        20.0234   18.1922   33.5082 H       1  lig         0.0527
     11 H11        17.1438   24.1979   34.4273 H       1  lig         0.0459
     12 H12        15.8108   23.4205   35.3074 H       1  lig         0.0459
     13 H13        16.4261   18.7298   33.6791 H       1  lig         0.0438
     14 H14        17.7652   18.6502   32.5702 H       1  lig         0.0425
     15 H15        14.3269   23.9549   33.6898 H       1  lig         0.0681
     16 H16        15.5093   24.8640   32.8231 H       1  lig         0.0571
     17 H17        15.7957   19.8475   31.6230 H       1  lig         0.0423
     18 H18        17.2847   20.7498   31.6056 H       1  lig         0.0489
     19 H19        18.0686   18.6089   35.7516 H       1  lig         0.0634
     20 H20        16.8598   20.9093   35.5176 H       1  lig         0.0564
     21 H21        18.8840   20.3521   33.6711 H       1  lig         0.0555
     22 H22        17.6358   22.3992   33.2970 H       1  lig         0.0551
     23 H23        13.9800   21.7736   34.2080 H       1  lig         0.0433
     24 H24        13.9165   20.3970   33.1400 H       1  lig         0.0424
     25 H25        14.8782   20.3121   34.6111 H       1  lig         0.0357
     26 H26        14.1985   21.9246   30.8786 H       1  lig         0.4072
     27 C1         17.2243   23.3403   30.2623 C.1     1  lig        -0.1335
     28 C2         16.3751   23.1379   31.1935 C.1     1  lig        -0.1688
     29 C3         20.9933   19.0930   36.5008 C.2     1  lig        -0.2674
     30 C4         19.7297   19.6082   36.0534 C.2     1  lig        -0.0292
     31 C5         21.3251   17.7303   36.0066 C.2     1  lig         0.5673
     32 C6         19.3603   20.9831   36.6606 C.3     1  lig        -0.0559
     33 C7         20.3083   16.9011   35.2355 C.3     1  lig        -0.1823
     34 C8         18.6266   21.9620   35.7017 C.3     1  lig        -0.0728
     35 C9         19.4196   17.8364   34.3481 C.3     1  lig        -0.0705
     36 C10        16.3226   23.4817   34.3492 C.3     1  lig        -0.0740
     37 C11        17.1995   19.3323   33.1966 C.3     1  lig        -0.0723
     38 C12        15.3192   23.8864   33.2458 C.3     1  lig        -0.0690
     39 C13        16.5074   20.3648   32.2669 C.3     1  lig        -0.0643
     40 C14        18.8333   19.0614   35.1144 C.3     1  lig        -0.0353
     41 C15        17.6018   21.2323   34.7839 C.3     1  lig        -0.0466
     42 C16        18.0716   19.9804   34.3049 C.3     1  lig        -0.0538
     43 C17        16.8166   22.1003   33.9577 C.3     1  lig        -0.0659
     44 C18        15.3412   22.7583   32.2012 C.3     1  lig         0.2372
     45 C19        15.7974   21.5306   32.9821 C.3     1  lig        -0.0680
     46 C20        14.5735   20.9709   33.7968 C.3     1  lig        -0.0802
     47 O1         22.3891   17.3103   36.3087 O.2     1  lig        -0.5348
     48 O2         14.0896   22.6605   31.5138 O.3     1  lig        -0.5805
@<TRIPOS>BOND
     1    31    47    2
     2    31    33    1
     3    29    31    1
     4    33    35    1
     5     5    33    1
     6     6    33    1
     7    29    30    2
     8     2    29    1
     9    30    32    1
    10    30    40    1
    11    32    34    1
    12     3    32    1
    13     4    32    1
    14    35    40    1
    15    40    42    1
    16    19    40    1
    17     9    35    1
    18    10    35    1
    19    41    42    1
    20    37    42    1
    21    21    42    1
    22    34    41    1
    23    41    43    1
    24    20    41    1
    25     7    34    1
    26     8    34    1
    27    37    39    1
    28    13    37    1
    29    14    37    1
    30    39    45    1
    31    17    39    1
    32    18    39    1
    33    43    45    1
    34    45    46    1
    35    44    45    1
    36    36    43    1
    37    22    43    1
    38    23    46    1
    39    24    46    1
    40    25    46    1
    41    44    48    1
    42    38    44    1
    43    28    44    1
    44    26    48    1
    45    36    38    1
    46    15    38    1
    47    16    38    1
    48    11    36    1
    49    12    36    1
    50    27    28    3
    51     1    27    1
@<TRIPOS>SUBSTRUCTURE
     1 lig         1 TEMP              0 ****  ****    0 ROOT


########## Name:		ligand
########## HA_RMSDs:		16.6689
########## HA_RMSDh:		16.4817
########## HA_RMSDm:		11.0538
########## Cluster Size:	1
##########    Grid Score:           -3.286806
##########      Grid_vdw:           -3.100990
##########       Grid_es:           -0.185817
##########    Int_energy:            3.019038

@<TRIPOS>MOLECULE
ligand
 48 51 1 0 0
SMALL
No Charge or Current Charge


@<TRIPOS>ATOM
      1 H1         24.0561   27.7107   33.3034 H       1  lig         0.1670
      2 H2         16.4015   22.2942   31.4394 H       1  lig         0.1473
      3 H3         18.7066   21.7938   31.3608 H       1  lig         0.0559
      4 H4         18.9044   20.8690   32.8311 H       1  lig         0.0575
      5 H5         15.3456   23.0261   35.2110 H       1  lig         0.0688
      6 H6         14.9061   24.6765   34.7755 H       1  lig         0.0740
      7 H7         20.4840   23.2681   31.8918 H       1  lig         0.0477
      8 H8         21.0800   21.6742   32.3395 H       1  lig         0.0465
      9 H9         17.1330   24.4638   35.9381 H       1  lig         0.0495
     10 H10        17.2319   25.2810   34.3776 H       1  lig         0.0527
     11 H11        23.2854   22.9404   32.6217 H       1  lig         0.0459
     12 H12        23.1795   21.7145   33.9030 H       1  lig         0.0459
     13 H13        19.6152   23.8214   36.7118 H       1  lig         0.0438
     14 H14        19.1104   25.3311   36.0079 H       1  lig         0.0425
     15 H15        24.8723   22.6635   35.0595 H       1  lig         0.0681
     16 H16        25.1618   23.8139   33.8071 H       1  lig         0.0571
     17 H17        21.4083   25.4319   36.9664 H       1  lig         0.0423
     18 H18        21.2871   25.8972   35.2930 H       1  lig         0.0489
     19 H19        18.0318   22.4703   35.0763 H       1  lig         0.0634
     20 H20        20.5711   22.0839   34.6175 H       1  lig         0.0564
     21 H21        19.5133   24.5595   33.8626 H       1  lig         0.0555
     22 H22        21.9150   24.3101   33.6222 H       1  lig         0.0551
     23 H23        23.2171   22.2314   36.5496 H       1  lig         0.0433
     24 H24        22.4700   23.3153   37.6926 H       1  lig         0.0424
     25 H25        21.4609   22.2849   36.6847 H       1  lig         0.0357
     26 H26        24.6861   23.8343   36.9526 H       1  lig         0.4072
     27 C1         23.9135   26.8348   33.8983 C.1     1  lig        -0.1335
     28 C2         23.7769   25.7746   34.5960 C.1     1  lig        -0.1688
     29 C3         16.5700   22.7548   32.4057 C.2     1  lig        -0.2674
     30 C4         17.8022   22.6900   33.1402 C.2     1  lig        -0.0292
     31 C5         15.4549   23.4402   33.1114 C.2     1  lig         0.5673
     32 C6         18.9168   21.8850   32.4294 C.3     1  lig        -0.0559
     33 C7         15.5868   23.8703   34.5652 C.3     1  lig        -0.1823
     34 C8         20.3567   22.4462   32.5961 C.3     1  lig        -0.0728
     35 C9         17.0594   24.3140   34.8590 C.3     1  lig        -0.0705
     36 C10        23.2054   22.7830   33.6999 C.3     1  lig        -0.0740
     37 C11        19.7873   24.4944   35.8684 C.3     1  lig        -0.0723
     38 C12        24.3867   23.4303   34.4573 C.3     1  lig        -0.0690
     39 C13        21.2379   25.0386   35.9640 C.3     1  lig        -0.0643
     40 C14        18.1341   23.2966   34.3675 C.3     1  lig        -0.0353
     41 C15        20.6114   23.0026   34.0280 C.3     1  lig        -0.0466
     42 C16        19.5017   23.7132   34.5580 C.3     1  lig        -0.0538
     43 C17        21.9568   23.4307   34.2716 C.3     1  lig        -0.0659
     44 C18        23.7799   24.5026   35.3772 C.3     1  lig         0.2372
     45 C19        22.3494   24.0304   35.6137 C.3     1  lig        -0.0680
     46 C20        22.3709   22.8864   36.6934 C.3     1  lig        -0.0802
     47 O1         14.4486   23.5633   32.5014 O.2     1  lig        -0.5348
     48 O2         24.5921   24.7146   36.5365 O.3     1  lig        -0.5805
@<TRIPOS>BOND
     1    31    47    2
     2    31    33    1
     3    29    31    1
     4    33    35    1
     5     5    33    1
     6     6    33    1
     7    29    30    2
     8     2    29    1
     9    30    32    1
    10    30    40    1
    11    32    34    1
    12     3    32    1
    13     4    32    1
    14    35    40    1
    15    40    42    1
    16    19    40    1
    17     9    35    1
    18    10    35    1
    19    41    42    1
    20    37    42    1
    21    21    42    1
    22    34    41    1
    23    41    43    1
    24    20    41    1
    25     7    34    1
    26     8    34    1
    27    37    39    1
    28    13    37    1
    29    14    37    1
    30    39    45    1
    31    17    39    1
    32    18    39    1
    33    43    45    1
    34    45    46    1
    35    44    45    1
    36    36    43    1
    37    22    43    1
    38    23    46    1
    39    24    46    1
    40    25    46    1
    41    44    48    1
    42    38    44    1
    43    28    44    1
    44    26    48    1
    45    36    38    1
    46    15    38    1
    47    16    38    1
    48    11    36    1
    49    12    36    1
    50    27    28    3
    51     1    27    1
@<TRIPOS>SUBSTRUCTURE
     1 lig         1 TEMP              0 ****  ****    0 ROOT


########## Name:		ligand
########## HA_RMSDs:		16.0424
########## HA_RMSDh:		15.9477
########## HA_RMSDm:		10.9256
########## Cluster Size:	1
##########    Grid Score:           -2.282396
##########      Grid_vdw:           -1.820062
##########       Grid_es:           -0.462334
##########    Int_energy:            3.010434

@<TRIPOS>MOLECULE
ligand
 48 51 1 0 0
SMALL
No Charge or Current Charge


@<TRIPOS>ATOM
      1 H1         20.2530   21.4993   37.5934 H       1  lig         0.1670
      2 H2         15.3095   25.7879   30.5790 H       1  lig         0.1473
      3 H3         16.5284   23.7669   30.5938 H       1  lig         0.0559
      4 H4         15.2374   22.5915   30.6834 H       1  lig         0.0575
      5 H5         12.1778   25.4492   33.0190 H       1  lig         0.0688
      6 H6         12.8210   26.7376   34.0354 H       1  lig         0.0740
      7 H7         17.6836   22.8356   32.4411 H       1  lig         0.0477
      8 H8         17.1419   21.4450   31.5090 H       1  lig         0.0465
      9 H9         13.1817   24.4144   34.9455 H       1  lig         0.0495
     10 H10        14.6734   25.3416   34.7790 H       1  lig         0.0527
     11 H11        18.6555   20.1788   33.1376 H       1  lig         0.0459
     12 H12        17.2222   19.1791   32.8179 H       1  lig         0.0459
     13 H13        13.8263   21.8459   35.3454 H       1  lig         0.0438
     14 H14        14.5799   23.2280   36.0878 H       1  lig         0.0425
     15 H15        17.6843   17.8197   34.5621 H       1  lig         0.0681
     16 H16        19.1763   18.6278   34.8731 H       1  lig         0.0571
     17 H17        15.2416   21.0762   37.1560 H       1  lig         0.0423
     18 H18        16.5658   22.0590   36.5972 H       1  lig         0.0489
     19 H19        13.6394   23.1242   33.0349 H       1  lig         0.0634
     20 H20        15.3137   21.1237   32.9823 H       1  lig         0.0564
     21 H21        16.1223   23.4117   34.3710 H       1  lig         0.0555
     22 H22        17.6041   21.4959   34.5213 H       1  lig         0.0551
     23 H23        15.4771   18.3283   34.6897 H       1  lig         0.0433
     24 H24        14.5820   18.9634   36.0443 H       1  lig         0.0424
     25 H25        14.3784   19.6856   34.4529 H       1  lig         0.0357
     26 H26        16.7462   18.8785   37.7311 H       1  lig         0.4072
     27 C1         19.4341   20.9739   37.1520 C.1     1  lig        -0.1335
     28 C2         18.4790   20.3157   36.6193 C.1     1  lig        -0.1688
     29 C3         14.8571   25.4814   31.5149 C.2     1  lig        -0.2674
     30 C4         15.0081   24.1838   32.1113 C.2     1  lig        -0.0292
     31 C5         13.9312   26.3972   32.2325 C.2     1  lig         0.5673
     32 C6         15.8957   23.2148   31.2933 C.3     1  lig        -0.0559
     33 C7         13.0882   25.9100   33.4021 C.3     1  lig        -0.1823
     34 C8         16.8039   22.2718   32.1311 C.3     1  lig        -0.0728
     35 C9         13.8808   24.8355   34.2202 C.3     1  lig        -0.0705
     36 C10        17.7606   19.7365   33.5816 C.3     1  lig        -0.0740
     37 C11        14.7822   22.3607   35.4676 C.3     1  lig        -0.0723
     38 C12        18.1143   18.8008   34.7594 C.3     1  lig        -0.0690
     39 C13        15.7430   21.4299   36.2549 C.3     1  lig        -0.0643
     40 C14        14.5095   23.7115   33.3411 C.3     1  lig        -0.0353
     41 C15        16.0924   21.7551   33.4162 C.3     1  lig        -0.0466
     42 C16        15.3077   22.7488   34.0596 C.3     1  lig        -0.0538
     43 C17        16.8427   20.7940   34.1686 C.3     1  lig        -0.0659
     44 C18        17.4607   19.4092   36.0113 C.3     1  lig         0.2372
     45 C19        16.2923   20.2245   35.4677 C.3     1  lig        -0.0680
     46 C20        15.1099   19.2431   35.1304 C.3     1  lig        -0.0802
     47 O1         13.8400   27.4935   31.7971 O.2     1  lig        -0.5348
     48 O2         17.1525   18.4015   36.9798 O.3     1  lig        -0.5805
@<TRIPOS>BOND
     1    31    47    2
     2    31    33    1
     3    29    31    1
     4    33    35    1
     5     5    33    1
     6     6    33    1
     7    29    30    2
     8     2    29    1
     9    30    32    1
    10    30    40    1
    11    32    34    1
    12     3    32    1
    13     4    32    1
    14    35    40    1
    15    40    42    1
    16    19    40    1
    17     9    35    1
    18    10    35    1
    19    41    42    1
    20    37    42    1
    21    21    42    1
    22    34    41    1
    23    41    43    1
    24    20    41    1
    25     7    34    1
    26     8    34    1
    27    37    39    1
    28    13    37    1
    29    14    37    1
    30    39    45    1
    31    17    39    1
    32    18    39    1
    33    43    45    1
    34    45    46    1
    35    44    45    1
    36    36    43    1
    37    22    43    1
    38    23    46    1
    39    24    46    1
    40    25    46    1
    41    44    48    1
    42    38    44    1
    43    28    44    1
    44    26    48    1
    45    36    38    1
    46    15    38    1
    47    16    38    1
    48    11    36    1
    49    12    36    1
    50    27    28    3
    51     1    27    1
@<TRIPOS>SUBSTRUCTURE
     1 lig         1 TEMP              0 ****  ****    0 ROOT


########## Name:		ligand
########## HA_RMSDs:		20.9545
########## HA_RMSDh:		20.7814
########## HA_RMSDm:		16.7518
########## Cluster Size:	1
##########    Grid Score:           -1.218897
##########      Grid_vdw:            0.296146
##########       Grid_es:           -1.515043
##########    Int_energy:            3.151063

@<TRIPOS>MOLECULE
ligand
 48 51 1 0 0
SMALL
No Charge or Current Charge


@<TRIPOS>ATOM
      1 H1          1.5550   35.2491   11.7802 H       1  lig         0.1670
      2 H2          7.6232   28.7346   15.0292 H       1  lig         0.1473
      3 H3          7.8210   31.0853   15.1011 H       1  lig         0.0559
      4 H4          7.3734   31.4139   16.7588 H       1  lig         0.0575
      5 H5          4.4860   27.6143   17.2150 H       1  lig         0.0688
      6 H6          3.7092   26.9559   15.7763 H       1  lig         0.0740
      7 H7          6.2717   32.6535   14.2324 H       1  lig         0.0477
      8 H8          6.9871   33.4596   15.6233 H       1  lig         0.0465
      9 H9          2.8189   29.1985   16.5069 H       1  lig         0.0495
     10 H10         3.3795   29.1778   14.8342 H       1  lig         0.0527
     11 H11         5.7228   35.4781   14.6888 H       1  lig         0.0459
     12 H12         5.6447   35.5447   16.4623 H       1  lig         0.0459
     13 H13         2.4819   31.7491   17.2511 H       1  lig         0.0438
     14 H14         2.0014   31.0431   15.7345 H       1  lig         0.0425
     15 H15         4.0100   37.1032   16.4102 H       1  lig         0.0681
     16 H16         4.1029   37.2287   14.6923 H       1  lig         0.0571
     17 H17         1.0378   33.3131   16.0924 H       1  lig         0.0423
     18 H18         1.9404   33.1204   14.6160 H       1  lig         0.0489
     19 H19         4.7289   30.3497   17.2495 H       1  lig         0.0634
     20 H20         5.1031   32.9149   16.9537 H       1  lig         0.0564
     21 H21         4.0466   31.5317   14.7656 H       1  lig         0.0555
     22 H22         4.1810   33.9437   14.5363 H       1  lig         0.0551
     23 H23         3.3728   35.5297   17.9152 H       1  lig         0.0433
     24 H24         1.8690   34.6520   18.0032 H       1  lig         0.0424
     25 H25         3.3921   33.7829   18.1472 H       1  lig         0.0357
     26 H26         1.5330   37.3820   15.4572 H       1  lig         0.4072
     27 C1          1.9159   35.4096   12.7729 C.1     1  lig        -0.1335
     28 C2          2.3106   35.5998   13.9717 C.1     1  lig        -0.1688
     29 C3          6.5940   28.8462   15.3493 C.2     1  lig        -0.2674
     30 C4          5.9991   30.0807   15.7787 C.2     1  lig        -0.0292
     31 C5          5.7117   27.6541   15.4579 C.2     1  lig         0.5673
     32 C6          6.9671   31.2882   15.7523 C.3     1  lig        -0.0559
     33 C7          4.3538   27.7367   16.1401 C.3     1  lig        -0.1823
     34 C8          6.3362   32.6414   15.3203 C.3     1  lig        -0.0728
     35 C9          3.7086   29.1388   15.8767 C.3     1  lig        -0.0705
     36 C10         5.0576   35.4267   15.5539 C.3     1  lig        -0.0740
     37 C11         2.6160   31.8247   16.1694 C.3     1  lig        -0.0723
     38 C12         3.9630   36.5159   15.4941 C.3     1  lig        -0.0690
     39 C13         2.0472   33.1903   15.6993 C.3     1  lig        -0.0643
     40 C14         4.6668   30.3365   16.1579 C.3     1  lig        -0.0353
     41 C15         4.8969   32.8286   15.8845 C.3     1  lig        -0.0466
     42 C16         4.1240   31.6375   15.8532 C.3     1  lig        -0.0538
     43 C17         4.3098   34.1065   15.6104 C.3     1  lig        -0.0659
     44 C18         2.6163   35.7773   15.4221 C.3     1  lig         0.2372
     45 C19         2.8938   34.4240   16.0678 C.3     1  lig        -0.0680
     46 C20         2.8943   34.6047   17.6306 C.3     1  lig        -0.0802
     47 O1          6.1567   26.6366   15.0500 O.2     1  lig        -0.5348
     48 O2          1.5614   36.5613   15.9887 O.3     1  lig        -0.5805
@<TRIPOS>BOND
     1    31    47    2
     2    31    33    1
     3    29    31    1
     4    33    35    1
     5     5    33    1
     6     6    33    1
     7    29    30    2
     8     2    29    1
     9    30    32    1
    10    30    40    1
    11    32    34    1
    12     3    32    1
    13     4    32    1
    14    35    40    1
    15    40    42    1
    16    19    40    1
    17     9    35    1
    18    10    35    1
    19    41    42    1
    20    37    42    1
    21    21    42    1
    22    34    41    1
    23    41    43    1
    24    20    41    1
    25     7    34    1
    26     8    34    1
    27    37    39    1
    28    13    37    1
    29    14    37    1
    30    39    45    1
    31    17    39    1
    32    18    39    1
    33    43    45    1
    34    45    46    1
    35    44    45    1
    36    36    43    1
    37    22    43    1
    38    23    46    1
    39    24    46    1
    40    25    46    1
    41    44    48    1
    42    38    44    1
    43    28    44    1
    44    26    48    1
    45    36    38    1
    46    15    38    1
    47    16    38    1
    48    11    36    1
    49    12    36    1
    50    27    28    3
    51     1    27    1
@<TRIPOS>SUBSTRUCTURE
     1 lig         1 TEMP              0 ****  ****    0 ROOT


########## Name:		ligand
########## HA_RMSDs:		16.0566
########## HA_RMSDh:		15.8706
########## HA_RMSDm:		8.8913
########## Cluster Size:	1
##########    Grid Score:           -0.198282
##########      Grid_vdw:            1.096420
##########       Grid_es:           -1.294702
##########    Int_energy:            3.014861

@<TRIPOS>MOLECULE
ligand
 48 51 1 0 0
SMALL
No Charge or Current Charge


@<TRIPOS>ATOM
      1 H1         14.8298   22.6237   30.7038 H       1  lig         0.1670
      2 H2         22.4268   20.6036   36.1719 H       1  lig         0.1473
      3 H3         20.3318   21.5403   36.7230 H       1  lig         0.0559
      4 H4         19.5321   20.1735   37.4638 H       1  lig         0.0575
      5 H5         21.9051   16.8435   34.9614 H       1  lig         0.0688
      6 H6         22.5343   17.2611   33.3687 H       1  lig         0.0740
      7 H7         18.5383   21.9495   35.2296 H       1  lig         0.0477
      8 H8         17.7626   21.5904   36.7676 H       1  lig         0.0465
      9 H9         20.0227   17.0742   33.4803 H       1  lig         0.0495
     10 H10        20.5834   18.6291   32.8633 H       1  lig         0.0527
     11 H11        15.6703   22.3722   35.5196 H       1  lig         0.0459
     12 H12        15.2149   21.0189   36.5764 H       1  lig         0.0459
     13 H13        17.4195   17.2912   34.0710 H       1  lig         0.0438
     14 H14        18.2116   17.9093   32.6498 H       1  lig         0.0425
     15 H15        13.2315   20.7630   35.5256 H       1  lig         0.0681
     16 H16        13.5048   22.1547   34.5438 H       1  lig         0.0571
     17 H17        15.7266   17.9740   32.4767 H       1  lig         0.0423
     18 H18        16.5230   19.5006   32.2184 H       1  lig         0.0489
     19 H19        19.4820   17.9776   35.5819 H       1  lig         0.0634
     20 H20        17.3286   19.3672   36.0711 H       1  lig         0.0564
     21 H21        18.6781   19.9259   33.6870 H       1  lig         0.0555
     22 H22        16.5674   21.0786   34.0108 H       1  lig         0.0551
     23 H23        14.1361   18.6935   35.7389 H       1  lig         0.0433
     24 H24        14.3964   17.4861   34.5083 H       1  lig         0.0424
     25 H25        15.6917   17.8719   35.6349 H       1  lig         0.0357
     26 H26        13.1972   18.9848   32.5456 H       1  lig         0.4072
     27 C1         14.7009   21.9277   31.5041 C.1     1  lig        -0.1335
     28 C2         14.5187   21.1185   32.4743 C.1     1  lig        -0.1688
     29 C3         21.8998   19.8493   35.5993 C.2     1  lig        -0.2674
     30 C4         20.4751   19.6695   35.5973 C.2     1  lig        -0.0292
     31 C5         22.6597   18.8434   34.8108 C.2     1  lig         0.5673
     32 C6         19.7139   20.6656   36.5052 C.3     1  lig        -0.0559
     33 C7         21.9699   17.6282   34.2078 C.3     1  lig        -0.1823
     34 C8         18.3465   21.1600   35.9560 C.3     1  lig        -0.0728
     35 C9         20.5177   18.0063   33.7602 C.3     1  lig        -0.0705
     36 C10        15.3064   21.3424   35.5417 C.3     1  lig        -0.0740
     37 C11        17.6212   18.2070   33.5103 C.3     1  lig        -0.0723
     38 C12        13.9417   21.2070   34.8294 C.3     1  lig        -0.0690
     39 C13        16.2719   18.7683   32.9869 C.3     1  lig        -0.0643
     40 C14        19.6986   18.7616   34.8511 C.3     1  lig        -0.0353
     41 C15        17.5570   20.0292   35.2328 C.3     1  lig        -0.0466
     42 C16        18.3832   19.1880   34.4410 C.3     1  lig        -0.0538
     43 C17        16.2411   20.3999   34.8044 C.3     1  lig        -0.0659
     44 C18        14.1626   20.2572   33.6404 C.3     1  lig         0.2372
     45 C19        15.3627   19.4112   34.0520 C.3     1  lig        -0.0680
     46 C20        14.8741   18.3019   35.0548 C.3     1  lig        -0.0802
     47 O1         23.8294   19.0079   34.7440 O.2     1  lig        -0.5348
     48 O2         12.9610   19.5564   33.3034 O.3     1  lig        -0.5805
@<TRIPOS>BOND
     1    31    47    2
     2    31    33    1
     3    29    31    1
     4    33    35    1
     5     5    33    1
     6     6    33    1
     7    29    30    2
     8     2    29    1
     9    30    32    1
    10    30    40    1
    11    32    34    1
    12     3    32    1
    13     4    32    1
    14    35    40    1
    15    40    42    1
    16    19    40    1
    17     9    35    1
    18    10    35    1
    19    41    42    1
    20    37    42    1
    21    21    42    1
    22    34    41    1
    23    41    43    1
    24    20    41    1
    25     7    34    1
    26     8    34    1
    27    37    39    1
    28    13    37    1
    29    14    37    1
    30    39    45    1
    31    17    39    1
    32    18    39    1
    33    43    45    1
    34    45    46    1
    35    44    45    1
    36    36    43    1
    37    22    43    1
    38    23    46    1
    39    24    46    1
    40    25    46    1
    41    44    48    1
    42    38    44    1
    43    28    44    1
    44    26    48    1
    45    36    38    1
    46    15    38    1
    47    16    38    1
    48    11    36    1
    49    12    36    1
    50    27    28    3
    51     1    27    1
@<TRIPOS>SUBSTRUCTURE
     1 lig         1 TEMP              0 ****  ****    0 ROOT


########## Name:		ligand
########## HA_RMSDs:		13.4489
########## HA_RMSDh:		13.4489
########## HA_RMSDm:		9.4629
########## Cluster Size:	1
##########    Grid Score:            1.562626
##########      Grid_vdw:            2.240223
##########       Grid_es:           -0.677597
##########    Int_energy:            3.197020

@<TRIPOS>MOLECULE
ligand
 48 51 1 0 0
SMALL
No Charge or Current Charge


@<TRIPOS>ATOM
      1 H1         22.8809   19.5192   12.0469 H       1  lig         0.1670
      2 H2         27.0963   23.3622    4.5635 H       1  lig         0.1473
      3 H3         27.3533   21.1782    5.4202 H       1  lig         0.0559
      4 H4         26.3595   20.2594    4.3136 H       1  lig         0.0575
      5 H5         23.3430   23.8500    3.3183 H       1  lig         0.0688
      6 H6         23.1020   25.1186    4.5180 H       1  lig         0.0740
      7 H7         26.2810   20.2840    7.3346 H       1  lig         0.0477
      8 H8         26.4879   18.9078    6.2578 H       1  lig         0.0465
      9 H9         22.1043   22.8896    5.1441 H       1  lig         0.0495
     10 H10        23.2218   23.5223    6.3540 H       1  lig         0.0527
     11 H11        25.7238   17.5993    8.3195 H       1  lig         0.0459
     12 H12        25.0230   16.8292    6.8802 H       1  lig         0.0459
     13 H13        21.6312   20.3128    5.6999 H       1  lig         0.0438
     14 H14        21.6925   21.6224    6.8446 H       1  lig         0.0425
     15 H15        23.5800   15.6227    8.1317 H       1  lig         0.0681
     16 H16        24.2829   16.1943    9.5997 H       1  lig         0.0571
     17 H17        20.7600   19.5280    7.8210 H       1  lig         0.0423
     18 H18        22.1198   20.1982    8.6774 H       1  lig         0.0489
     19 H19        23.6716   21.3270    4.3523 H       1  lig         0.0634
     20 H20        24.2330   19.0773    5.5488 H       1  lig         0.0564
     21 H21        23.9670   21.3389    7.1710 H       1  lig         0.0555
     22 H22        24.2745   19.2285    8.3287 H       1  lig         0.0551
     23 H23        22.3844   16.5127    6.4214 H       1  lig         0.0433
     24 H24        20.9124   17.4446    6.4903 H       1  lig         0.0424
     25 H25        22.2471   18.0011    5.4879 H       1  lig         0.0357
     26 H26        21.6202   16.0337    9.8886 H       1  lig         0.4072
     27 C1         22.8601   18.8996   11.1768 C.1     1  lig        -0.1335
     28 C2         22.7979   18.1679   10.1327 C.1     1  lig        -0.1688
     29 C3         26.0261   23.2484    4.6900 C.2     1  lig        -0.2674
     30 C4         25.3694   22.0224    5.0473 C.2     1  lig        -0.0292
     31 C5         25.1140   24.3863    4.3988 C.2     1  lig         0.5673
     32 C6         26.3329   20.8275    5.2466 C.3     1  lig        -0.0559
     33 C7         23.6070   24.1896    4.3197 C.3     1  lig        -0.1823
     34 C8         25.9538   19.8469    6.3914 C.3     1  lig        -0.0728
     35 C9         23.1566   23.0978    5.3479 C.3     1  lig        -0.0705
     36 C10        24.7929   17.3711    7.7951 C.3     1  lig        -0.0740
     37 C11        22.1443   20.6672    6.5971 C.3     1  lig        -0.0723
     38 C12        23.8376   16.5320    8.6733 C.3     1  lig        -0.0690
     39 C13        21.8372   19.6836    7.7580 C.3     1  lig        -0.0643
     40 C14        24.0012   21.7884    5.2873 C.3     1  lig        -0.0353
     41 C15        24.4171   19.6123    6.4831 C.3     1  lig        -0.0466
     42 C16        23.6569   20.7935    6.2731 C.3     1  lig        -0.0538
     43 C17        24.0195   18.6310    7.4485 C.3     1  lig        -0.0659
     44 C18        22.5749   17.3845    8.8818 C.3     1  lig         0.2372
     45 C19        22.5480   18.3188    7.6769 C.3     1  lig        -0.0680
     46 C20        22.0002   17.5217    6.4362 C.3     1  lig        -0.0802
     47 O1         25.6322   25.4239    4.1651 O.2     1  lig        -0.5348
     48 O2         21.4211   16.5639    9.0910 O.3     1  lig        -0.5805
@<TRIPOS>BOND
     1    31    47    2
     2    31    33    1
     3    29    31    1
     4    33    35    1
     5     5    33    1
     6     6    33    1
     7    29    30    2
     8     2    29    1
     9    30    32    1
    10    30    40    1
    11    32    34    1
    12     3    32    1
    13     4    32    1
    14    35    40    1
    15    40    42    1
    16    19    40    1
    17     9    35    1
    18    10    35    1
    19    41    42    1
    20    37    42    1
    21    21    42    1
    22    34    41    1
    23    41    43    1
    24    20    41    1
    25     7    34    1
    26     8    34    1
    27    37    39    1
    28    13    37    1
    29    14    37    1
    30    39    45    1
    31    17    39    1
    32    18    39    1
    33    43    45    1
    34    45    46    1
    35    44    45    1
    36    36    43    1
    37    22    43    1
    38    23    46    1
    39    24    46    1
    40    25    46    1
    41    44    48    1
    42    38    44    1
    43    28    44    1
    44    26    48    1
    45    36    38    1
    46    15    38    1
    47    16    38    1
    48    11    36    1
    49    12    36    1
    50    27    28    3
    51     1    27    1
@<TRIPOS>SUBSTRUCTURE
     1 lig         1 TEMP              0 ****  ****    0 ROOT


########## Name:		ligand
########## HA_RMSDs:		15.8603
########## HA_RMSDh:		15.6429
########## HA_RMSDm:		10.4295
########## Cluster Size:	1
##########    Grid Score:            2.583828
##########      Grid_vdw:            1.590145
##########       Grid_es:            0.993684
##########    Int_energy:            3.255764

@<TRIPOS>MOLECULE
ligand
 48 51 1 0 0
SMALL
No Charge or Current Charge


@<TRIPOS>ATOM
      1 H1         22.1075   16.7420   37.7360 H       1  lig         0.1670
      2 H2         23.3988   12.0709   30.0066 H       1  lig         0.1473
      3 H3         22.2627   14.1079   30.3672 H       1  lig         0.0559
      4 H4         23.4202   15.2587   29.7411 H       1  lig         0.0575
      5 H5         27.2854   12.5937   30.7108 H       1  lig         0.0688
      6 H6         27.2097   11.4313   32.0336 H       1  lig         0.0740
      7 H7         22.0450   15.2495   32.4321 H       1  lig         0.0477
      8 H8         22.0656   16.5245   31.2196 H       1  lig         0.0465
      9 H9         27.2356   13.8433   32.7666 H       1  lig         0.0495
     10 H10        25.8573   12.9355   33.3905 H       1  lig         0.0527
     11 H11        21.4201   17.9840   33.2195 H       1  lig         0.0459
     12 H12        22.5237   18.9147   32.1843 H       1  lig         0.0459
     13 H13        26.7703   16.4524   33.1519 H       1  lig         0.0438
     14 H14        26.4745   15.1707   34.2917 H       1  lig         0.0425
     15 H15        22.8646   20.4567   33.7999 H       1  lig         0.0681
     16 H16        21.6993   19.7169   34.8345 H       1  lig         0.0571
     17 H17        26.3087   17.4350   35.3188 H       1  lig         0.0423
     18 H18        24.9035   16.4278   35.5250 H       1  lig         0.0489
     19 H19        25.9250   14.9384   31.1517 H       1  lig         0.0634
     20 H20        24.3532   16.9576   31.6616 H       1  lig         0.0564
     21 H21        24.3272   14.8432   33.4906 H       1  lig         0.0555
     22 H22        23.0213   16.7951   34.1013 H       1  lig         0.0551
     23 H23        24.9031   19.9174   32.9628 H       1  lig         0.0433
     24 H24        26.3326   19.4070   33.8204 H       1  lig         0.0424
     25 H25        25.8127   18.5200   32.3926 H       1  lig         0.0357
     26 H26        23.7785   20.5706   36.3044 H       1  lig         0.4072
     27 C1         22.5895   17.4197   37.0654 C.1     1  lig        -0.1335
     28 C2         23.1599   18.2041   36.2356 C.1     1  lig        -0.1688
     29 C3         24.2175   12.4629   30.5985 C.2     1  lig        -0.2674
     30 C4         24.3168   13.8181   31.0630 C.2     1  lig        -0.0292
     31 C5         25.3936   11.6068   30.9068 C.2     1  lig         0.5673
     32 C6         23.1279   14.7158   30.6432 C.3     1  lig        -0.0559
     33 C7         26.6612   12.1944   31.5100 C.3     1  lig        -0.1823
     34 C8         22.6721   15.7594   31.7011 C.3     1  lig        -0.0728
     35 C9         26.2958   13.3642   32.4847 C.3     1  lig        -0.0705
     36 C10        22.4061   18.4509   33.1614 C.3     1  lig        -0.0740
     37 C11        25.9886   15.9733   33.7463 C.3     1  lig        -0.0723
     38 C12        22.5987   19.5106   34.2695 C.3     1  lig        -0.0690
     39 C13        25.4634   17.0006   34.7846 C.3     1  lig        -0.0643
     40 C14        25.3053   14.4044   31.8774 C.3     1  lig        -0.0353
     41 C15        23.8742   16.3911   32.4633 C.3     1  lig        -0.0466
     42 C16        24.8930   15.4529   32.7779 C.3     1  lig        -0.0538
     43 C17        23.5198   17.4405   33.3721 C.3     1  lig        -0.0659
     44 C18        23.7658   19.0212   35.1430 C.3     1  lig         0.2372
     45 C19        24.5831   18.1296   34.2144 C.3     1  lig        -0.0680
     46 C20        25.4559   19.0456   33.2793 C.3     1  lig        -0.0802
     47 O1         25.3084   10.4696   30.5914 O.2     1  lig        -0.5348
     48 O2         24.4511   20.1169   35.7580 O.3     1  lig        -0.5805
@<TRIPOS>BOND
     1    31    47    2
     2    31    33    1
     3    29    31    1
     4    33    35    1
     5     5    33    1
     6     6    33    1
     7    29    30    2
     8     2    29    1
     9    30    32    1
    10    30    40    1
    11    32    34    1
    12     3    32    1
    13     4    32    1
    14    35    40    1
    15    40    42    1
    16    19    40    1
    17     9    35    1
    18    10    35    1
    19    41    42    1
    20    37    42    1
    21    21    42    1
    22    34    41    1
    23    41    43    1
    24    20    41    1
    25     7    34    1
    26     8    34    1
    27    37    39    1
    28    13    37    1
    29    14    37    1
    30    39    45    1
    31    17    39    1
    32    18    39    1
    33    43    45    1
    34    45    46    1
    35    44    45    1
    36    36    43    1
    37    22    43    1
    38    23    46    1
    39    24    46    1
    40    25    46    1
    41    44    48    1
    42    38    44    1
    43    28    44    1
    44    26    48    1
    45    36    38    1
    46    15    38    1
    47    16    38    1
    48    11    36    1
    49    12    36    1
    50    27    28    3
    51     1    27    1
@<TRIPOS>SUBSTRUCTURE
     1 lig         1 TEMP              0 ****  ****    0 ROOT


########## Name:		ligand
########## HA_RMSDs:		15.7563
########## HA_RMSDh:		15.3339
########## HA_RMSDm:		9.4510
########## Cluster Size:	1
##########    Grid Score:            3.255965
##########      Grid_vdw:            2.839500
##########       Grid_es:            0.416465
##########    Int_energy:            3.188663

@<TRIPOS>MOLECULE
ligand
 48 51 1 0 0
SMALL
No Charge or Current Charge


@<TRIPOS>ATOM
      1 H1         25.1689   21.3457    0.5152 H       1  lig         0.1670
      2 H2         23.5631   17.3639    8.9023 H       1  lig         0.1473
      3 H3         25.4785   18.5449    8.1905 H       1  lig         0.0559
      4 H4         25.2194   20.1003    8.9454 H       1  lig         0.0575
      5 H5         20.4331   19.8294    8.9208 H       1  lig         0.0688
      6 H6         19.6410   18.8450    7.6918 H       1  lig         0.0740
      7 H7         25.8288   19.4943    6.0481 H       1  lig         0.0477
      8 H8         26.7022   20.5514    7.1507 H       1  lig         0.0465
      9 H9         20.6996   20.9571    6.8119 H       1  lig         0.0495
     10 H10        21.2676   19.4972    6.0000 H       1  lig         0.0527
     11 H11        27.5857   21.5523    4.9680 H       1  lig         0.0459
     12 H12        27.3415   22.8752    6.1283 H       1  lig         0.0459
     13 H13        22.3394   22.9733    6.1647 H       1  lig         0.0438
     14 H14        21.7075   21.7668    5.0810 H       1  lig         0.0425
     15 H15        27.5175   24.4365    4.5050 H       1  lig         0.0681
     16 H16        27.9104   23.2459    3.3202 H       1  lig         0.0571
     17 H17        22.7927   23.6656    3.8867 H       1  lig         0.0423
     18 H18        23.4162   22.0902    3.4856 H       1  lig         0.0489
     19 H19        22.6769   21.1627    8.0661 H       1  lig         0.0634
     20 H20        24.9183   22.1113    7.1260 H       1  lig         0.0564
     21 H21        23.4993   20.3552    5.4769 H       1  lig         0.0555
     22 H22        25.4638   21.3861    4.4937 H       1  lig         0.0551
     23 H23        25.7031   24.9840    5.7521 H       1  lig         0.0433
     24 H24        24.0750   25.3113    5.2216 H       1  lig         0.0424
     25 H25        24.3445   24.2278    6.5814 H       1  lig         0.0357
     26 H26        24.7132   25.0733    2.5622 H       1  lig         0.4072
     27 C1         25.3968   21.9759    1.3473 C.1     1  lig        -0.1335
     28 C2         25.6379   22.7502    2.3330 C.1     1  lig        -0.1688
     29 C3         22.9585   18.1426    8.4524 C.2     1  lig        -0.2674
     30 C4         23.4717   19.3747    7.9227 C.2     1  lig        -0.0292
     31 C5         21.4765   18.0219    8.4351 C.2     1  lig         0.5673
     32 C6         25.0079   19.5202    8.0438 C.3     1  lig        -0.0559
     33 C7         20.5932   19.1987    8.0464 C.3     1  lig        -0.1823
     34 C8         25.7090   20.2242    6.8485 C.3     1  lig        -0.0728
     35 C9         21.2994   20.0539    6.9412 C.3     1  lig        -0.0705
     36 C10        27.0089   22.4553    5.1813 C.3     1  lig        -0.0740
     37 C11        22.6316   22.1854    5.4663 C.3     1  lig        -0.0723
     38 C12        27.1651   23.5069    4.0598 C.3     1  lig        -0.0690
     39 C13        23.3865   22.8392    4.2780 C.3     1  lig        -0.0643
     40 C14        22.7793   20.4158    7.2740 C.3     1  lig        -0.0353
     41 C15        24.8713   21.4115    6.2887 C.3     1  lig        -0.0466
     42 C16        23.4780   21.1400    6.2408 C.3     1  lig        -0.0538
     43 C17        25.5202   22.1665    5.2583 C.3     1  lig        -0.0659
     44 C18        25.7643   23.7186    3.4621 C.3     1  lig         0.2372
     45 C19        24.8118   23.3352    4.5894 C.3     1  lig        -0.0680
     46 C20        24.7336   24.5312    5.6085 C.3     1  lig        -0.0802
     47 O1         21.0325   16.9899    8.8064 O.2     1  lig        -0.5348
     48 O2         25.6246   25.0338    2.9152 O.3     1  lig        -0.5805
@<TRIPOS>BOND
     1    31    47    2
     2    31    33    1
     3    29    31    1
     4    33    35    1
     5     5    33    1
     6     6    33    1
     7    29    30    2
     8     2    29    1
     9    30    32    1
    10    30    40    1
    11    32    34    1
    12     3    32    1
    13     4    32    1
    14    35    40    1
    15    40    42    1
    16    19    40    1
    17     9    35    1
    18    10    35    1
    19    41    42    1
    20    37    42    1
    21    21    42    1
    22    34    41    1
    23    41    43    1
    24    20    41    1
    25     7    34    1
    26     8    34    1
    27    37    39    1
    28    13    37    1
    29    14    37    1
    30    39    45    1
    31    17    39    1
    32    18    39    1
    33    43    45    1
    34    45    46    1
    35    44    45    1
    36    36    43    1
    37    22    43    1
    38    23    46    1
    39    24    46    1
    40    25    46    1
    41    44    48    1
    42    38    44    1
    43    28    44    1
    44    26    48    1
    45    36    38    1
    46    15    38    1
    47    16    38    1
    48    11    36    1
    49    12    36    1
    50    27    28    3
    51     1    27    1
@<TRIPOS>SUBSTRUCTURE
     1 lig         1 TEMP              0 ****  ****    0 ROOT


########## Name:		ligand
########## HA_RMSDs:		15.5314
########## HA_RMSDh:		15.3837
########## HA_RMSDm:		10.4526
########## Cluster Size:	1
##########    Grid Score:            7.310452
##########      Grid_vdw:            6.537820
##########       Grid_es:            0.772631
##########    Int_energy:            3.010432

@<TRIPOS>MOLECULE
ligand
 48 51 1 0 0
SMALL
No Charge or Current Charge


@<TRIPOS>ATOM
      1 H1         15.4172   16.6255   35.4053 H       1  lig         0.1670
      2 H2         11.7446   25.0082   32.5287 H       1  lig         0.1473
      3 H3         12.8489   24.4129   34.5277 H       1  lig         0.0559
      4 H4         14.4338   25.0999   34.2586 H       1  lig         0.0575
      5 H5         14.2957   24.7124   29.4823 H       1  lig         0.0688
      6 H6         13.2958   23.4548   28.7574 H       1  lig         0.0740
      7 H7         13.7208   22.2774   35.0697 H       1  lig         0.0477
      8 H8         14.7872   23.4132   35.8876 H       1  lig         0.0465
      9 H9         15.3490   22.5986   29.9435 H       1  lig         0.0495
     10 H10        13.8492   21.8760   30.5277 H       1  lig         0.0527
     11 H11        15.6943   21.2774   36.9654 H       1  lig         0.0459
     12 H12        17.0591   22.3763   36.6731 H       1  lig         0.0459
     13 H13        17.2975   22.0221   31.6881 H       1  lig         0.0438
     14 H14        16.0758   20.9282   31.1050 H       1  lig         0.0425
     15 H15        18.5634   20.7268   37.0199 H       1  lig         0.0681
     16 H16        17.3258   19.6112   37.4664 H       1  lig         0.0571
     17 H17        17.9053   19.7670   32.3353 H       1  lig         0.0423
     18 H18        16.3013   19.4613   32.9399 H       1  lig         0.0489
     19 H19        15.5386   23.9958   31.8242 H       1  lig         0.0634
     20 H20        16.3946   23.2051   34.1587 H       1  lig         0.0564
     21 H21        14.6279   21.5026   32.8178 H       1  lig         0.0555
     22 H22        15.5724   20.6451   34.8820 H       1  lig         0.0551
     23 H23        19.1999   21.8132   35.1327 H       1  lig         0.0433
     24 H24        19.5557   21.1488   33.5606 H       1  lig         0.0424
     25 H25        18.5082   22.5564   33.6924 H       1  lig         0.0357
     26 H26        19.7924   19.7191   35.3846 H       1  lig         0.4072
     27 C1         16.0702   17.4671   35.3237 C.1     1  lig        -0.1335
     28 C2         16.8629   18.4657   35.2622 C.1     1  lig        -0.1688
     29 C3         12.5254   24.4903   31.9841 C.2     1  lig        -0.2674
     30 C4         13.7256   23.9664   32.5733 C.2     1  lig        -0.0292
     31 C5         12.4455   24.3617   30.5048 C.2     1  lig         0.5673
     32 C6         13.8320   24.2020   34.0994 C.3     1  lig        -0.0559
     33 C7         13.6337   23.8718   29.6898 C.3     1  lig        -0.1823
     34 C8         14.4784   23.0446   34.9110 C.3     1  lig        -0.0728
     35 C9         14.4340   22.8002   30.5041 C.3     1  lig        -0.0705
     36 C10        16.6192   21.4190   36.4015 C.3     1  lig        -0.0740
     37 C11        16.4804   21.3717   32.0090 C.3     1  lig        -0.0723
     38 C12        17.6305   20.2829   36.6749 C.3     1  lig        -0.0690
     39 C13        17.0753   20.2269   32.8721 C.3     1  lig        -0.0643
     40 C14        14.7648   23.2360   31.9644 C.3     1  lig        -0.0353
     41 C15        15.6705   22.3873   34.1548 C.3     1  lig        -0.0466
     42 C16        15.4365   22.2395   32.7617 C.3     1  lig        -0.0538
     43 C17        16.3745   21.3888   34.9032 C.3     1  lig        -0.0659
     44 C18        17.8622   19.5725   35.3309 C.3     1  lig         0.2372
     45 C19        17.5409   20.6334   34.2837 C.3     1  lig        -0.0680
     46 C20        18.7699   21.6082   34.1638 C.3     1  lig        -0.0802
     47 O1         11.4384   24.7273   30.0028 O.2     1  lig        -0.5348
     48 O2         19.1631   18.9785   35.2734 O.3     1  lig        -0.5805
@<TRIPOS>BOND
     1    31    47    2
     2    31    33    1
     3    29    31    1
     4    33    35    1
     5     5    33    1
     6     6    33    1
     7    29    30    2
     8     2    29    1
     9    30    32    1
    10    30    40    1
    11    32    34    1
    12     3    32    1
    13     4    32    1
    14    35    40    1
    15    40    42    1
    16    19    40    1
    17     9    35    1
    18    10    35    1
    19    41    42    1
    20    37    42    1
    21    21    42    1
    22    34    41    1
    23    41    43    1
    24    20    41    1
    25     7    34    1
    26     8    34    1
    27    37    39    1
    28    13    37    1
    29    14    37    1
    30    39    45    1
    31    17    39    1
    32    18    39    1
    33    43    45    1
    34    45    46    1
    35    44    45    1
    36    36    43    1
    37    22    43    1
    38    23    46    1
    39    24    46    1
    40    25    46    1
    41    44    48    1
    42    38    44    1
    43    28    44    1
    44    26    48    1
    45    36    38    1
    46    15    38    1
    47    16    38    1
    48    11    36    1
    49    12    36    1
    50    27    28    3
    51     1    27    1
@<TRIPOS>SUBSTRUCTURE
     1 lig         1 TEMP              0 ****  ****    0 ROOT


########## Name:		ligand
########## HA_RMSDs:		16.0462
########## HA_RMSDh:		15.7496
########## HA_RMSDm:		7.6477
########## Cluster Size:	1
##########    Grid Score:            7.699437
##########      Grid_vdw:            7.803558
##########       Grid_es:           -0.104121
##########    Int_energy:            3.278031

@<TRIPOS>MOLECULE
ligand
 48 51 1 0 0
SMALL
No Charge or Current Charge


@<TRIPOS>ATOM
      1 H1         16.8486   21.4793   30.2684 H       1  lig         0.1670
      2 H2         21.5427   18.2060   37.3558 H       1  lig         0.1473
      3 H3         19.4964   19.3816   37.3250 H       1  lig         0.0559
      4 H4         18.3565   18.0883   37.6154 H       1  lig         0.0575
      5 H5         21.0418   14.6547   35.6201 H       1  lig         0.0688
      6 H6         22.1969   15.0971   34.3644 H       1  lig         0.0740
      7 H7         18.3429   20.1453   35.4014 H       1  lig         0.0477
      8 H8         17.0743   19.7850   36.5663 H       1  lig         0.0465
      9 H9         19.7814   15.2535   33.6597 H       1  lig         0.0495
     10 H10        20.6768   16.7567   33.4324 H       1  lig         0.0527
     11 H11        15.6003   20.9401   34.8229 H       1  lig         0.0459
     12 H12        14.6821   19.5889   35.5208 H       1  lig         0.0459
     13 H13        17.1673   15.7862   33.4241 H       1  lig         0.0438
     14 H14        18.4412   16.3914   32.4041 H       1  lig         0.0425
     15 H15        13.1342   19.6895   33.8783 H       1  lig         0.0681
     16 H16        13.8611   21.0984   33.1984 H       1  lig         0.0571
     17 H17        16.1706   16.8135   31.4682 H       1  lig         0.0423
     18 H18        17.1675   18.2295   31.6499 H       1  lig         0.0489
     19 H19        18.6860   16.0657   35.5742 H       1  lig         0.0634
     20 H20        16.6539   17.7013   35.5186 H       1  lig         0.0564
     21 H21        18.7587   18.2414   33.7594 H       1  lig         0.0555
     22 H22        16.7952   19.6492   33.5341 H       1  lig         0.0551
     23 H23        13.6911   17.5043   34.1260 H       1  lig         0.0433
     24 H24        14.2065   16.3667   32.9095 H       1  lig         0.0424
     25 H25        15.0974   16.4844   34.4222 H       1  lig         0.0357
     26 H26        12.9317   18.1766   32.1842 H       1  lig         0.4072
     27 C1         16.1651   20.8484   30.7938 C.1     1  lig        -0.1335
     28 C2         15.3761   20.0869   31.4474 C.1     1  lig        -0.1688
     29 C3         21.1530   17.5767   36.5643 C.2     1  lig        -0.2674
     30 C4         19.7961   17.5973   36.0945 C.2     1  lig        -0.0292
     31 C5         22.0152   16.5358   35.9443 C.2     1  lig         0.5673
     32 C6         18.8928   18.6197   36.8255 C.3     1  lig        -0.0559
     33 C7         21.4328   15.4763   35.0201 C.3     1  lig        -0.1823
     34 C8         17.8408   19.3387   35.9353 C.3     1  lig        -0.0728
     35 C9         20.2557   16.0845   34.1857 C.3     1  lig        -0.0705
     36 C10        15.1402   19.9720   34.6113 C.3     1  lig        -0.0740
     37 C11        17.6383   16.7039   33.0639 C.3     1  lig        -0.0723
     38 C12        14.0761   20.0807   33.4960 C.3     1  lig        -0.0690
     39 C13        16.6022   17.4844   32.2113 C.3     1  lig        -0.0643
     40 C14        19.2122   16.8638   35.0433 C.3     1  lig        -0.0353
     41 C15        17.2131   18.3851   34.8762 C.3     1  lig        -0.0466
     42 C16        18.1564   17.4980   34.2928 C.3     1  lig        -0.0538
     43 C17        16.1567   18.9658   34.1017 C.3     1  lig        -0.0659
     44 C18        14.5687   19.1998   32.3359 C.3     1  lig         0.2372
     45 C19        15.4704   18.1671   33.0035 C.3     1  lig        -0.0680
     46 C20        14.5649   17.0655   33.6681 C.3     1  lig        -0.0802
     47 O1         23.1534   16.5406   36.2674 O.2     1  lig        -0.5348
     48 O2         13.4744   18.6997   31.5607 O.3     1  lig        -0.5805
@<TRIPOS>BOND
     1    31    47    2
     2    31    33    1
     3    29    31    1
     4    33    35    1
     5     5    33    1
     6     6    33    1
     7    29    30    2
     8     2    29    1
     9    30    32    1
    10    30    40    1
    11    32    34    1
    12     3    32    1
    13     4    32    1
    14    35    40    1
    15    40    42    1
    16    19    40    1
    17     9    35    1
    18    10    35    1
    19    41    42    1
    20    37    42    1
    21    21    42    1
    22    34    41    1
    23    41    43    1
    24    20    41    1
    25     7    34    1
    26     8    34    1
    27    37    39    1
    28    13    37    1
    29    14    37    1
    30    39    45    1
    31    17    39    1
    32    18    39    1
    33    43    45    1
    34    45    46    1
    35    44    45    1
    36    36    43    1
    37    22    43    1
    38    23    46    1
    39    24    46    1
    40    25    46    1
    41    44    48    1
    42    38    44    1
    43    28    44    1
    44    26    48    1
    45    36    38    1
    46    15    38    1
    47    16    38    1
    48    11    36    1
    49    12    36    1
    50    27    28    3
    51     1    27    1
@<TRIPOS>SUBSTRUCTURE
     1 lig         1 TEMP              0 ****  ****    0 ROOT


########## Name:		ligand
########## HA_RMSDs:		16.2317
########## HA_RMSDh:		16.0488
########## HA_RMSDm:		10.6804
########## Cluster Size:	1
##########    Grid Score:           10.349366
##########      Grid_vdw:           10.879284
##########       Grid_es:           -0.529918
##########    Int_energy:            3.010435

@<TRIPOS>MOLECULE
ligand
 48 51 1 0 0
SMALL
No Charge or Current Charge


@<TRIPOS>ATOM
      1 H1         22.3368   18.0738   32.5254 H       1  lig         0.1670
      2 H2         13.5763   21.6961   33.9968 H       1  lig         0.1473
      3 H3         15.0667   20.6157   35.4739 H       1  lig         0.0559
      4 H4         15.6984   21.9746   36.3742 H       1  lig         0.0575
      5 H5         15.1646   25.1592   32.8309 H       1  lig         0.0688
      6 H6         15.1958   24.5917   31.1625 H       1  lig         0.0740
      7 H7         17.2248   19.7947   34.9419 H       1  lig         0.0477
      8 H8         17.3376   20.2801   36.6295 H       1  lig         0.0465
      9 H9         17.4264   24.5054   32.3341 H       1  lig         0.0495
     10 H10        16.9261   22.9521   31.6634 H       1  lig         0.0527
     11 H11        19.5996   19.0940   36.4773 H       1  lig         0.0459
     12 H12        19.7897   20.5243   37.5136 H       1  lig         0.0459
     13 H13        19.4732   24.0803   34.0082 H       1  lig         0.0438
     14 H14        19.2545   23.3588   32.4395 H       1  lig         0.0425
     15 H15        22.0429   20.3991   37.4074 H       1  lig         0.0681
     16 H16        21.9781   18.9211   36.5203 H       1  lig         0.0571
     17 H17        21.5383   22.9873   33.3643 H       1  lig         0.0423
     18 H18        20.6825   21.5402   32.9116 H       1  lig         0.0489
     19 H19        16.8872   23.8574   34.5282 H       1  lig         0.0634
     20 H20        18.3811   22.3162   36.0117 H       1  lig         0.0564
     21 H21        18.0742   21.5785   33.3324 H       1  lig         0.0555
     22 H22        19.6376   20.2514   34.6296 H       1  lig         0.0551
     23 H23        21.4852   22.5672   37.0398 H       1  lig         0.0433
     24 H24        21.9629   23.6071   35.7245 H       1  lig         0.0424
     25 H25        20.2723   23.5371   36.2070 H       1  lig         0.0357
     26 H26        23.3721   21.8183   36.2160 H       1  lig         0.4072
     27 C1         22.2215   18.8512   33.2491 C.1     1  lig        -0.1335
     28 C2         22.1026   19.7582   34.1394 C.1     1  lig        -0.1688
     29 C3         14.4098   22.2953   33.6496 C.2     1  lig        -0.2674
     30 C4         15.7144   22.3095   34.2496 C.2     1  lig        -0.0292
     31 C5         14.2236   23.2575   32.5312 C.2     1  lig         0.5673
     32 C6         15.8537   21.3739   35.4748 C.3     1  lig        -0.0559
     33 C7         15.2912   24.2870   32.1898 C.3     1  lig        -0.1823
     34 C8         17.2238   20.6533   35.6132 C.3     1  lig        -0.0728
     35 C9         16.7140   23.6856   32.4467 C.3     1  lig        -0.0705
     36 C10        20.0852   20.0682   36.5711 C.3     1  lig        -0.0740
     37 C11        19.3756   23.1225   33.4917 C.3     1  lig        -0.0723
     38 C12        21.6243   19.9435   36.5109 C.3     1  lig        -0.0690
     39 C13        20.7078   22.3419   33.6508 C.3     1  lig        -0.0643
     40 C14        16.8686   23.0064   33.8418 C.3     1  lig        -0.0353
     41 C15        18.4167   21.5711   35.2138 C.3     1  lig        -0.0466
     42 C16        18.1456   22.3785   34.0772 C.3     1  lig        -0.0538
     43 C17        19.7110   20.9953   35.4284 C.3     1  lig        -0.0659
     44 C18        22.0775   20.7317   35.2708 C.3     1  lig         0.2372
     45 C19        20.9721   21.7591   35.0527 C.3     1  lig        -0.0680
     46 C20        21.1743   22.9380   36.0746 C.3     1  lig        -0.0802
     47 O1         13.1782   23.2195   31.9786 O.2     1  lig        -0.5348
     48 O2         23.4076   21.2354   35.4312 O.3     1  lig        -0.5805
@<TRIPOS>BOND
     1    31    47    2
     2    31    33    1
     3    29    31    1
     4    33    35    1
     5     5    33    1
     6     6    33    1
     7    29    30    2
     8     2    29    1
     9    30    32    1
    10    30    40    1
    11    32    34    1
    12     3    32    1
    13     4    32    1
    14    35    40    1
    15    40    42    1
    16    19    40    1
    17     9    35    1
    18    10    35    1
    19    41    42    1
    20    37    42    1
    21    21    42    1
    22    34    41    1
    23    41    43    1
    24    20    41    1
    25     7    34    1
    26     8    34    1
    27    37    39    1
    28    13    37    1
    29    14    37    1
    30    39    45    1
    31    17    39    1
    32    18    39    1
    33    43    45    1
    34    45    46    1
    35    44    45    1
    36    36    43    1
    37    22    43    1
    38    23    46    1
    39    24    46    1
    40    25    46    1
    41    44    48    1
    42    38    44    1
    43    28    44    1
    44    26    48    1
    45    36    38    1
    46    15    38    1
    47    16    38    1
    48    11    36    1
    49    12    36    1
    50    27    28    3
    51     1    27    1
@<TRIPOS>SUBSTRUCTURE
     1 lig         1 TEMP              0 ****  ****    0 ROOT


########## Name:		ligand
########## HA_RMSDs:		17.5058
########## HA_RMSDh:		17.4189
########## HA_RMSDm:		12.2094
########## Cluster Size:	1
##########    Grid Score:           11.720847
##########      Grid_vdw:           11.157038
##########       Grid_es:            0.563810
##########    Int_energy:            3.010449

@<TRIPOS>MOLECULE
ligand
 48 51 1 0 0
SMALL
No Charge or Current Charge


@<TRIPOS>ATOM
      1 H1         26.5002   21.1181   33.9575 H       1  lig         0.1670
      2 H2         29.4556   12.0222   34.7070 H       1  lig         0.1473
      3 H3         28.5330   13.4817   36.3160 H       1  lig         0.0559
      4 H4         26.8951   12.8799   36.4220 H       1  lig         0.0575
      5 H5         26.7171   11.2419   31.9200 H       1  lig         0.0688
      6 H6         27.7360   11.9981   30.6966 H       1  lig         0.0740
      7 H7         27.8300   15.7146   35.9493 H       1  lig         0.0477
      8 H8         26.7588   15.1127   37.2088 H       1  lig         0.0465
      9 H9         25.8264   13.4368   31.4963 H       1  lig         0.0495
     10 H10        27.4041   14.2085   31.6648 H       1  lig         0.0527
     11 H11        26.0587   17.5707   37.3297 H       1  lig         0.0459
     12 H12        24.6138   16.5676   37.5782 H       1  lig         0.0459
     13 H13        24.0441   14.8444   32.9157 H       1  lig         0.0438
     14 H14        25.2843   15.4925   31.8806 H       1  lig         0.0425
     15 H15        23.2385   18.3319   37.2627 H       1  lig         0.0681
     16 H16        24.5686   19.4246   37.1522 H       1  lig         0.0571
     17 H17        23.6187   17.2073   32.5840 H       1  lig         0.0423
     18 H18        25.2768   17.6007   32.9412 H       1  lig         0.0489
     19 H19        25.6880   12.9650   33.7948 H       1  lig         0.0634
     20 H20        25.0481   14.7198   35.6166 H       1  lig         0.0564
     21 H21        26.8132   15.5602   33.6177 H       1  lig         0.0555
     22 H22        26.0700   17.2710   35.1698 H       1  lig         0.0551
     23 H23        22.4064   16.6189   36.0297 H       1  lig         0.0433
     24 H24        21.9802   16.5999   34.3393 H       1  lig         0.0424
     25 H25        22.9490   15.2912   35.0060 H       1  lig         0.0357
     26 H26        21.9587   18.6708   35.4060 H       1  lig         0.4072
     27 C1         25.7943   20.3760   34.2613 C.1     1  lig        -0.1335
     28 C2         24.9413   19.5117   34.6546 C.1     1  lig        -0.1688
     29 C3         28.6703   12.3313   34.0272 C.2     1  lig        -0.2674
     30 C4         27.5481   13.1504   34.3904 C.2     1  lig        -0.0292
     31 C5         28.6526   11.8287   32.6278 C.2     1  lig         0.5673
     32 C6         27.5363   13.5777   35.8781 C.3     1  lig        -0.0559
     33 C7         27.4409   12.0345   31.7305 C.3     1  lig        -0.1823
     34 C8         27.0189   15.0167   36.1562 C.3     1  lig        -0.0728
     35 C9         26.7653   13.4098   32.0531 C.3     1  lig        -0.0705
     36 C10        25.0894   17.2861   36.9138 C.3     1  lig        -0.0740
     37 C11        24.9191   15.4986   32.9025 C.3     1  lig        -0.0723
     38 C12        24.1693   18.5135   36.7269 C.3     1  lig        -0.0690
     39 C13        24.4558   16.9433   33.2306 C.3     1  lig        -0.0643
     40 C14        26.5136   13.6471   33.5736 C.3     1  lig        -0.0353
     41 C15        25.8174   15.3990   35.2423 C.3     1  lig        -0.0466
     42 C16        25.9603   14.9366   33.9071 C.3     1  lig        -0.0538
     43 C17        25.2287   16.6727   35.5319 C.3     1  lig        -0.0659
     44 C18        23.8854   18.6203   35.2194 C.3     1  lig         0.2372
     45 C19        24.0682   17.1983   34.7000 C.3     1  lig        -0.0680
     46 C20        22.7780   16.3677   35.0476 C.3     1  lig        -0.0802
     47 O1         29.5981   11.2053   32.2853 O.2     1  lig        -0.5348
     48 O2         22.6213   19.2435   34.9704 O.3     1  lig        -0.5805
@<TRIPOS>BOND
     1    31    47    2
     2    31    33    1
     3    29    31    1
     4    33    35    1
     5     5    33    1
     6     6    33    1
     7    29    30    2
     8     2    29    1
     9    30    32    1
    10    30    40    1
    11    32    34    1
    12     3    32    1
    13     4    32    1
    14    35    40    1
    15    40    42    1
    16    19    40    1
    17     9    35    1
    18    10    35    1
    19    41    42    1
    20    37    42    1
    21    21    42    1
    22    34    41    1
    23    41    43    1
    24    20    41    1
    25     7    34    1
    26     8    34    1
    27    37    39    1
    28    13    37    1
    29    14    37    1
    30    39    45    1
    31    17    39    1
    32    18    39    1
    33    43    45    1
    34    45    46    1
    35    44    45    1
    36    36    43    1
    37    22    43    1
    38    23    46    1
    39    24    46    1
    40    25    46    1
    41    44    48    1
    42    38    44    1
    43    28    44    1
    44    26    48    1
    45    36    38    1
    46    15    38    1
    47    16    38    1
    48    11    36    1
    49    12    36    1
    50    27    28    3
    51     1    27    1
@<TRIPOS>SUBSTRUCTURE
     1 lig         1 TEMP              0 ****  ****    0 ROOT


########## Name:		ligand
########## HA_RMSDs:		18.0503
########## HA_RMSDh:		17.9096
########## HA_RMSDm:		14.2785
########## Cluster Size:	1
##########    Grid Score:           17.053564
##########      Grid_vdw:           17.806259
##########       Grid_es:           -0.752695
##########    Int_energy:            3.242712

@<TRIPOS>MOLECULE
ligand
 48 51 1 0 0
SMALL
No Charge or Current Charge


@<TRIPOS>ATOM
      1 H1          1.4159   21.3498   15.0574 H       1  lig         0.1670
      2 H2          2.7952   29.5730   18.7862 H       1  lig         0.1473
      3 H3          4.1215   27.6234   18.8867 H       1  lig         0.0559
      4 H4          5.4081   28.0294   17.7748 H       1  lig         0.0575
      5 H5          2.7515   30.9386   15.0433 H       1  lig         0.0688
      6 H6          1.0106   30.6757   14.9598 H       1  lig         0.0740
      7 H7          3.6686   25.5584   17.8166 H       1  lig         0.0477
      8 H8          5.4247   25.6597   17.8617 H       1  lig         0.0465
      9 H9          2.3874   28.9118   13.7985 H       1  lig         0.0495
     10 H10         1.2881   28.2563   15.0128 H       1  lig         0.0527
     11 H11         5.2562   23.2330   17.0684 H       1  lig         0.0459
     12 H12         6.6369   23.9922   16.2481 H       1  lig         0.0459
     13 H13         4.1378   26.9993   13.1265 H       1  lig         0.0438
     14 H14         2.4226   26.7998   13.3454 H       1  lig         0.0425
     15 H15         6.7807   22.3017   14.7562 H       1  lig         0.0681
     16 H16         5.5465   21.4062   15.5626 H       1  lig         0.0571
     17 H17         3.4969   24.8229   12.2742 H       1  lig         0.0423
     18 H18         2.5897   24.4755   13.7192 H       1  lig         0.0489
     19 H19         4.2615   28.6495   15.1927 H       1  lig         0.0634
     20 H20         5.4774   26.3779   15.6039 H       1  lig         0.0564
     21 H21         2.6819   26.3314   15.5978 H       1  lig         0.0555
     22 H22         3.7821   24.1751   15.7668 H       1  lig         0.0551
     23 H23         6.9099   24.2350   13.5761 H       1  lig         0.0433
     24 H24         5.9708   24.7325   12.1940 H       1  lig         0.0424
     25 H25         6.2077   25.8507   13.5316 H       1  lig         0.0357
     26 H26         5.2603   21.1222   12.9074 H       1  lig         0.4072
     27 C1          2.3608   21.6854   14.6886 C.1     1  lig        -0.1335
     28 C2          3.4902   22.1134   14.2756 C.1     1  lig        -0.1688
     29 C3          2.7168   29.4225   17.7158 C.2     1  lig        -0.2674
     30 C4          3.4567   28.4434   16.9701 C.2     1  lig        -0.0292
     31 C5          1.8653   30.3237   16.8949 C.2     1  lig         0.5673
     32 C6          4.4118   27.5846   17.8338 C.3     1  lig        -0.0559
     33 C7          1.9306   30.3028   15.3746 C.3     1  lig        -0.1823
     34 C8          4.5304   26.0921   17.4164 C.3     1  lig        -0.0728
     35 C9          2.1996   28.8444   14.8720 C.3     1  lig        -0.0705
     36 C10         5.6533   23.5508   16.1016 C.3     1  lig        -0.0740
     37 C11         3.3870   26.4535   13.7029 C.3     1  lig        -0.0723
     38 C12         5.7535   22.3679   15.1123 C.3     1  lig        -0.0690
     39 C13         3.5056   24.9448   13.3575 C.3     1  lig        -0.0643
     40 C14         3.3847   28.1364   15.5973 C.3     1  lig        -0.0353
     41 C15         4.5271   25.9095   15.8699 C.3     1  lig        -0.0466
     42 C16         3.6083   26.7660   15.2070 C.3     1  lig        -0.0538
     43 C17         4.7463   24.5646   15.4270 C.3     1  lig        -0.0659
     44 C18         4.8197   22.7019   13.9371 C.3     1  lig         0.2372
     45 C19         4.7351   24.2244   13.9441 C.3     1  lig        -0.0680
     46 C20         6.0397   24.8023   13.2814 C.3     1  lig        -0.0802
     47 O1          1.1966   31.0964   17.4913 O.2     1  lig        -0.5348
     48 O2          5.2653   22.0834   12.7257 O.3     1  lig        -0.5805
@<TRIPOS>BOND
     1    31    47    2
     2    31    33    1
     3    29    31    1
     4    33    35    1
     5     5    33    1
     6     6    33    1
     7    29    30    2
     8     2    29    1
     9    30    32    1
    10    30    40    1
    11    32    34    1
    12     3    32    1
    13     4    32    1
    14    35    40    1
    15    40    42    1
    16    19    40    1
    17     9    35    1
    18    10    35    1
    19    41    42    1
    20    37    42    1
    21    21    42    1
    22    34    41    1
    23    41    43    1
    24    20    41    1
    25     7    34    1
    26     8    34    1
    27    37    39    1
    28    13    37    1
    29    14    37    1
    30    39    45    1
    31    17    39    1
    32    18    39    1
    33    43    45    1
    34    45    46    1
    35    44    45    1
    36    36    43    1
    37    22    43    1
    38    23    46    1
    39    24    46    1
    40    25    46    1
    41    44    48    1
    42    38    44    1
    43    28    44    1
    44    26    48    1
    45    36    38    1
    46    15    38    1
    47    16    38    1
    48    11    36    1
    49    12    36    1
    50    27    28    3
    51     1    27    1
@<TRIPOS>SUBSTRUCTURE
     1 lig         1 TEMP              0 ****  ****    0 ROOT


########## Name:		ligand
########## HA_RMSDs:		16.3525
########## HA_RMSDh:		16.0645
########## HA_RMSDm:		8.8306
########## Cluster Size:	1
##########    Grid Score:           22.953802
##########      Grid_vdw:           23.570292
##########       Grid_es:           -0.616489
##########    Int_energy:            3.244212

@<TRIPOS>MOLECULE
ligand
 48 51 1 0 0
SMALL
No Charge or Current Charge


@<TRIPOS>ATOM
      1 H1         20.2297   16.3642   30.4116 H       1  lig         0.1670
      2 H2         13.6236   17.4958   36.6149 H       1  lig         0.1473
      3 H3         15.8682   16.8244   36.8997 H       1  lig         0.0559
      4 H4         16.5803   18.2837   37.5476 H       1  lig         0.0575
      5 H5         13.5336   21.2822   35.3777 H       1  lig         0.0688
      6 H6         12.7704   20.7794   33.8705 H       1  lig         0.0740
      7 H7         17.5027   16.6248   35.1959 H       1  lig         0.0477
      8 H8         18.4106   17.0868   36.6306 H       1  lig         0.0465
      9 H9         15.2355   21.2706   33.6766 H       1  lig         0.0495
     10 H10        14.7968   19.6545   33.1210 H       1  lig         0.0527
     11 H11        20.4146   16.5554   35.1313 H       1  lig         0.0459
     12 H12        20.8277   17.9619   36.1347 H       1  lig         0.0459
     13 H13        17.8983   21.3755   33.9442 H       1  lig         0.0438
     14 H14        17.0198   20.6552   32.6255 H       1  lig         0.0425
     15 H15        22.6225   18.4488   34.8519 H       1  lig         0.0681
     16 H16        22.4025   17.0268   33.9005 H       1  lig         0.0571
     17 H17        19.4546   20.8914   32.1504 H       1  lig         0.0423
     18 H18        18.8239   19.2774   31.9799 H       1  lig         0.0489
     19 H19        16.1338   20.4553   35.6899 H       1  lig         0.0634
     20 H20        18.4835   19.3410   35.9028 H       1  lig         0.0564
     21 H21        16.9314   18.6048   33.6969 H       1  lig         0.0555
     22 H22        19.1900   17.7192   33.7526 H       1  lig         0.0551
     23 H23        21.5061   20.3947   35.1891 H       1  lig         0.0433
     24 H24        20.9532   21.5522   34.0084 H       1  lig         0.0424
     25 H25        19.8613   21.0206   35.2816 H       1  lig         0.0357
     26 H26        22.7461   20.1977   33.3938 H       1  lig         0.4072
     27 C1         20.6054   17.0761   31.1141 C.1     1  lig        -0.1335
     28 C2         21.0258   17.9168   31.9777 C.1     1  lig        -0.1688
     29 C3         13.9814   18.3041   35.9880 C.2     1  lig        -0.2674
     30 C4         15.3628   18.6555   35.8137 C.2     1  lig        -0.0292
     31 C5         13.0147   19.2044   35.3053 C.2     1  lig         0.5673
     32 C6         16.3441   17.7660   36.6148 C.3     1  lig        -0.0559
     33 C7         13.4733   20.4898   34.6318 C.3     1  lig        -0.1823
     34 C8         17.6843   17.4371   35.8994 C.3     1  lig        -0.0728
     35 C9         14.8951   20.2874   34.0078 C.3     1  lig        -0.0705
     36 C10        20.6508   17.6220   35.1164 C.3     1  lig        -0.0740
     37 C11        17.7425   20.4378   33.4054 C.3     1  lig        -0.0723
     38 C12        21.8919   17.9166   34.2442 C.3     1  lig        -0.0690
     39 C13        19.0760   20.0406   32.7174 C.3     1  lig        -0.0643
     40 C14        15.9267   19.6453   34.9851 C.3     1  lig        -0.0353
     41 C15        18.2366   18.6499   35.0938 C.3     1  lig        -0.0466
     42 C16        17.2242   19.3787   34.4147 C.3     1  lig        -0.0538
     43 C17        19.5258   18.4385   34.5055 C.3     1  lig        -0.0659
     44 C18        21.4142   18.8236   33.0981 C.3     1  lig         0.2372
     45 C19        20.1794   19.5208   33.6590 C.3     1  lig        -0.0680
     46 C20        20.6483   20.6887   34.6030 C.3     1  lig        -0.0802
     47 O1         11.8742   18.8987   35.3803 O.2     1  lig        -0.5348
     48 O2         22.4717   19.6625   32.6224 O.3     1  lig        -0.5805
@<TRIPOS>BOND
     1    31    47    2
     2    31    33    1
     3    29    31    1
     4    33    35    1
     5     5    33    1
     6     6    33    1
     7    29    30    2
     8     2    29    1
     9    30    32    1
    10    30    40    1
    11    32    34    1
    12     3    32    1
    13     4    32    1
    14    35    40    1
    15    40    42    1
    16    19    40    1
    17     9    35    1
    18    10    35    1
    19    41    42    1
    20    37    42    1
    21    21    42    1
    22    34    41    1
    23    41    43    1
    24    20    41    1
    25     7    34    1
    26     8    34    1
    27    37    39    1
    28    13    37    1
    29    14    37    1
    30    39    45    1
    31    17    39    1
    32    18    39    1
    33    43    45    1
    34    45    46    1
    35    44    45    1
    36    36    43    1
    37    22    43    1
    38    23    46    1
    39    24    46    1
    40    25    46    1
    41    44    48    1
    42    38    44    1
    43    28    44    1
    44    26    48    1
    45    36    38    1
    46    15    38    1
    47    16    38    1
    48    11    36    1
    49    12    36    1
    50    27    28    3
    51     1    27    1
@<TRIPOS>SUBSTRUCTURE
     1 lig         1 TEMP              0 ****  ****    0 ROOT

