@<TRIPOS>MOLECULE
ligand
   24    24     1     0     0
SMALL
No Charge or Current Charge


@<TRIPOS>ATOM
      1 H1          32.8420    -0.8220    51.8520 ha         1 liga      0.134000
      2 H2          31.0750    -0.3630    47.9970 ha         1 liga      0.134000
      3 H3          32.0340     1.4120    52.4520 ha         1 liga      0.147500
      4 H4          30.3710     1.9510    48.5450 ha         1 liga      0.147500
      5 H5          33.1000    -2.0470    48.6090 hc         1 liga      0.087700
      6 H6          33.1780    -2.5010    50.2980 hc         1 liga      0.087700
      7 H7          30.6550    -2.7420    48.5230 hx         1 liga      0.096600
      8 H8          30.3440    -2.6000    51.0610 hn         1 liga      0.443100
      9 H9          29.9160    -4.0160    50.3510 hn         1 liga      0.443100
     10 H10         31.3060    -3.9680    51.0500 hn         1 liga      0.443100
     11 H11         31.5880     3.6530    50.8210 ho         1 liga      0.421400
     12 C1          32.2930    -0.2240    51.1250 ca         1 liga     -0.099900
     13 C2          31.3170     0.0570    48.9730 ca         1 liga     -0.099900
     14 C3          31.8570     1.0320    51.4460 ca         1 liga     -0.178700
     15 C4          30.9070     1.3420    49.2730 ca         1 liga     -0.178700
     16 C5          32.0300    -0.7150    49.8830 ca         1 liga     -0.139400
     17 C6          31.2050     1.8270    50.5410 ca         1 liga      0.129200
     18 C7          31.9670    -4.4050    48.6940 c          1 liga      0.932100
     19 C8          32.4890    -2.1160    49.5260 c3         1 liga     -0.045200
     20 C9          31.3780    -3.1310    49.2550 c3         1 liga     -0.074000
     21 N1          30.6770    -3.3700    50.5160 n4         1 liga     -0.825200
     22 O1          32.3720    -4.3160    47.5370 o          1 liga     -0.757300
     23 O2          32.0170    -5.4920    49.3380 o          1 liga     -0.757300
     24 O3          30.8150     2.9790    50.9180 oh         1 liga     -0.491300
@<TRIPOS>BOND
     1     1    12 1   
     2     2    13 1   
     3     3    14 1   
     4     4    15 1   
     5     5    19 1   
     6     6    19 1   
     7     7    20 1   
     8     8    21 1   
     9     9    21 1   
    10    10    21 1   
    11    11    24 1   
    12    12    14 ar  
    13    12    16 ar  
    14    13    15 ar  
    15    13    16 ar  
    16    14    17 ar  
    17    15    17 ar  
    18    16    19 1   
    19    17    24 1   
    20    18    20 1   
    21    18    22 1   
    22    18    23 1   
    23    19    20 1   
    24    20    21 1   
@<TRIPOS>SUBSTRUCTURE
     1 liga        1 TEMP              0 ****  ****    0 ROOT
