
########## Name:		ligand
##########    Grid Score:          -46.063606
##########      Grid_vdw:          -18.776152
##########       Grid_es:          -27.287457
##########    Int_energy:            1.521467

@<TRIPOS>MOLECULE
ligand
 24 24 1 0 0
SMALL
No Charge or Current Charge


@<TRIPOS>ATOM
      1 H1         18.6217   17.9478   19.5137 H       1  lig         0.1340
      2 H2         16.8957   18.4178   15.6387 H       1  lig         0.1340
      3 H3         17.8547   20.1908   20.0877 H       1  lig         0.1475
      4 H4         16.1617   20.7028   16.1947 H       1  lig         0.1475
      5 H5         18.9187   16.7248   16.2847 H       1  lig         0.0877
      6 H6         18.9477   16.2478   17.9527 H       1  lig         0.0877
      7 H7         16.4747   16.0208   16.1627 H       1  lig         0.0966
      8 H8         16.0327   16.2458   18.5587 H       1  lig         0.4431
      9 H9         15.7217   14.6808   18.1037 H       1  lig         0.4431
     10 H10        17.1397   15.0438   18.8987 H       1  lig         0.4431
     11 H11        16.1207   22.1718   17.8077 H       1  lig         0.4214
     12 C1         18.0897   18.5428   18.7757 C.ar    1  lig        -0.0999
     13 C2         17.1137   18.8238   16.6237 C.ar    1  lig        -0.0999
     14 C3         17.6537   19.7988   19.0967 C.ar    1  lig        -0.1787
     15 C4         16.7037   20.1088   16.9237 C.ar    1  lig        -0.1787
     16 C5         17.8267   18.0518   17.5337 C.ar    1  lig        -0.1394
     17 C6         17.0017   20.5938   18.1917 C.ar    1  lig         0.1292
     18 C7         17.7637   14.3618   16.3447 C.2     1  lig         0.9321
     19 C8         18.2857   16.6508   17.1767 C.3     1  lig        -0.0452
     20 C9         17.1747   15.6358   16.9057 C.3     1  lig        -0.0740
     21 N1         16.4737   15.3968   18.1667 N.4     1  lig        -0.8252
     22 O1         18.1687   14.4508   15.1877 O.co2   1  lig        -0.7573
     23 O2         17.8137   13.2748   16.9887 O.co2   1  lig        -0.7573
     24 O3         16.6117   21.7458   18.5687 O.3     1  lig        -0.4913
@<TRIPOS>BOND
     1     1    12    1
     2     2    13    1
     3     3    14    1
     4     4    15    1
     5     5    19    1
     6     6    19    1
     7     7    20    1
     8     8    21    1
     9     9    21    1
    10    10    21    1
    11    11    24    1
    12    12    14   ar
    13    12    16   ar
    14    13    15   ar
    15    13    16   ar
    16    14    17   ar
    17    15    17   ar
    18    16    19    1
    19    17    24    1
    20    18    20    1
    21    18    22    1
    22    18    23    1
    23    19    20    1
    24    20    21    1
@<TRIPOS>SUBSTRUCTURE
     1 lig         1 TEMP              0 ****  ****    0 ROOT

