@<TRIPOS>MOLECULE
MOL
   15    14     1     0     0
SMALL
bcc


@<TRIPOS>ATOM
      1 O1         -0.5180    1.3560   -0.1520 oh        1 MOL     -0.600800
      2 C1         -0.4810    0.0200    0.3430 c3        1 MOL      0.138100
      3 C2          0.7350   -0.7000   -0.2440 c3        1 MOL     -0.074400
      4 C3         -1.7760   -0.6830   -0.0410 c3        1 MOL     -0.131100
      5 C4          2.0410    0.0060    0.0940 c3        1 MOL     -0.092100
      6 H1         -0.3950    0.0670    1.4350 h1        1 MOL      0.030700
      7 H2          0.7730   -1.7300    0.1280 hc        1 MOL      0.048200
      8 H3          0.6480   -0.7460   -1.3360 hc        1 MOL      0.048200
      9 H4         -1.9130   -0.6860   -1.1280 hc        1 MOL      0.042033
     10 H5         -1.7910   -1.7160    0.3190 hc        1 MOL      0.042033
     11 H6         -2.6380   -0.1550    0.3810 hc        1 MOL      0.042033
     12 H7          2.1730    0.0890    1.1770 hc        1 MOL      0.036700
     13 H8          2.0760    1.0120   -0.3360 hc        1 MOL      0.036700
     14 H9          2.8880   -0.5580   -0.3080 hc        1 MOL      0.036700
     15 H10        -1.2870    1.7960    0.2480 ho        1 MOL      0.397000
@<TRIPOS>BOND
     1    1    2 1   
     2    1   15 1   
     3    2    3 1   
     4    2    4 1   
     5    2    6 1   
     6    3    5 1   
     7    3    7 1   
     8    3    8 1   
     9    4    9 1   
    10    4   10 1   
    11    4   11 1   
    12    5   12 1   
    13    5   13 1   
    14    5   14 1   
@<TRIPOS>SUBSTRUCTURE
     1 MOL         1 TEMP              0 ****  ****    0 ROOT
